<?xml version="1.0" encoding="UTF-8"?>

<!-- generated on 2023-08-09 10:08:02.587754 by randomTrips.py UNKNOWN
<configuration>
    <lanes value="True"/>
    <net-file value="2lane/2lane.net.xml"/>
    <period value="4.0 2.0 1.0"/>
    <random-arrivalpos value="True"/>
    <random-depart value="True"/>
    <route-file value="2lane/2lane.rou.xml"/>
    <seed value="1"/>
    <trip-attributes value="departLane=&quot;best&quot; departSpeed=&quot;max&quot; departPos=&quot;random&quot;"/>
</configuration>
-->

<!-- generated on Wed Aug  9 10:08:02 2023 by Eclipse SUMO duarouter Version 1.4.0
<configuration xmlns:xsi="http://www.w3.org/2001/XMLSchema-instance" xsi:noNamespaceSchemaLocation="http://sumo.dlr.de/xsd/duarouterConfiguration.xsd">

    <input>
        <net-file value="2lane/2lane.net.xml"/>
        <route-files value="trips.trips.xml"/>
    </input>

    <output>
        <output-file value="2lane/2lane.rou.xml"/>
        <alternatives-output value="NUL"/>
    </output>

    <time>
        <begin value="0.0"/>
        <end value="3600.0"/>
    </time>

    <report>
        <no-warnings value="true"/>
        <ignore-errors value="true"/>
        <no-step-log value="true"/>
    </report>

</configuration>
-->

<routes xmlns:xsi="http://www.w3.org/2001/XMLSchema-instance" xsi:noNamespaceSchemaLocation="http://sumo.dlr.de/xsd/routes_file.xsd">
    <vehicle id="1" depart="4.00" departLane="best" departPos="random" departSpeed="max" arrivalPos="34.53">
        <route edges="-E3 E1"/>
    </vehicle>
    <vehicle id="2" depart="11.00" departLane="best" departPos="random" departSpeed="max" arrivalPos="71.89">
        <route edges="-E4 E1"/>
    </vehicle>
    <vehicle id="3" depart="17.00" departLane="best" departPos="random" departSpeed="max" arrivalPos="34.67">
        <route edges="-E4 E2"/>
    </vehicle>
    <vehicle id="5" depart="25.00" departLane="best" departPos="random" departSpeed="max" arrivalPos="113.48">
        <route edges="-E1 E4"/>
    </vehicle>
    <vehicle id="8" depart="35.00" departLane="best" departPos="random" departSpeed="max" arrivalPos="3.15">
        <route edges="-E3 E1"/>
    </vehicle>
    <vehicle id="9" depart="36.00" departLane="best" departPos="random" departSpeed="max" arrivalPos="178.97">
        <route edges="-E4 E2"/>
    </vehicle>
    <vehicle id="13" depart="45.00" departLane="best" departPos="random" departSpeed="max" arrivalPos="206.46">
        <route edges="-E4 E3"/>
    </vehicle>
    <vehicle id="14" depart="48.00" departLane="best" departPos="random" departSpeed="max" arrivalPos="162.48">
        <route edges="-E3 E2"/>
    </vehicle>
    <vehicle id="15" depart="52.00" departLane="best" departPos="random" departSpeed="max" arrivalPos="24.41">
        <route edges="-E2 E1"/>
    </vehicle>
    <vehicle id="16" depart="57.00" departLane="best" departPos="random" departSpeed="max" arrivalPos="134.37">
        <route edges="-E2 E4"/>
    </vehicle>
    <vehicle id="19" depart="60.00" departLane="best" departPos="random" departSpeed="max" arrivalPos="268.05">
        <route edges="-E2 E4"/>
    </vehicle>
    <vehicle id="23" depart="70.00" departLane="best" departPos="random" departSpeed="max" arrivalPos="22.54">
        <route edges="-E3 E1"/>
    </vehicle>
    <vehicle id="24" depart="72.00" departLane="best" departPos="random" departSpeed="max" arrivalPos="237.66">
        <route edges="-E3 E2"/>
    </vehicle>
    <vehicle id="25" depart="76.00" departLane="best" departPos="random" departSpeed="max" arrivalPos="46.25">
        <route edges="-E2 E4"/>
    </vehicle>
    <vehicle id="26" depart="77.00" departLane="best" departPos="random" departSpeed="max" arrivalPos="23.13">
        <route edges="-E3 E4"/>
    </vehicle>
    <vehicle id="27" depart="80.00" departLane="best" departPos="random" departSpeed="max" arrivalPos="232.86">
        <route edges="-E4 E1"/>
    </vehicle>
    <vehicle id="29" depart="89.00" departLane="best" departPos="random" departSpeed="max" arrivalPos="275.81">
        <route edges="-E1 E3"/>
    </vehicle>
    <vehicle id="30" depart="97.00" departLane="best" departPos="random" departSpeed="max" arrivalPos="42.50">
        <route edges="-E2 E4"/>
    </vehicle>
    <vehicle id="31" depart="114.00" departLane="best" departPos="random" departSpeed="max" arrivalPos="94.82">
        <route edges="-E4 E1"/>
    </vehicle>
    <vehicle id="33" depart="129.00" departLane="best" departPos="random" departSpeed="max" arrivalPos="206.88">
        <route edges="-E4 E3"/>
    </vehicle>
    <vehicle id="34" depart="133.00" departLane="best" departPos="random" departSpeed="max" arrivalPos="47.37">
        <route edges="-E1 E2"/>
    </vehicle>
    <vehicle id="36" depart="144.00" departLane="best" departPos="random" departSpeed="max" arrivalPos="242.48">
        <route edges="-E1 E4"/>
    </vehicle>
    <vehicle id="39" depart="156.00" departLane="best" departPos="random" departSpeed="max" arrivalPos="193.93">
        <route edges="-E2 E1"/>
    </vehicle>
    <vehicle id="40" depart="156.00" departLane="best" departPos="random" departSpeed="max" arrivalPos="18.70">
        <route edges="-E2 E3"/>
    </vehicle>
    <vehicle id="41" depart="167.00" departLane="best" departPos="random" departSpeed="max" arrivalPos="37.54">
        <route edges="-E2 E1"/>
    </vehicle>
    <vehicle id="42" depart="170.00" departLane="best" departPos="random" departSpeed="max" arrivalPos="119.34">
        <route edges="-E2 E4"/>
    </vehicle>
    <vehicle id="43" depart="173.00" departLane="best" departPos="random" departSpeed="max" arrivalPos="70.06">
        <route edges="-E2 E3"/>
    </vehicle>
    <vehicle id="44" depart="177.00" departLane="best" departPos="random" departSpeed="max" arrivalPos="150.27">
        <route edges="-E1 E3"/>
    </vehicle>
    <vehicle id="45" depart="187.00" departLane="best" departPos="random" departSpeed="max" arrivalPos="205.95">
        <route edges="-E3 E2"/>
    </vehicle>
    <vehicle id="46" depart="192.00" departLane="best" departPos="random" departSpeed="max" arrivalPos="148.52">
        <route edges="-E3 E1"/>
    </vehicle>
    <vehicle id="47" depart="197.00" departLane="best" departPos="random" departSpeed="max" arrivalPos="123.67">
        <route edges="-E2 E1"/>
    </vehicle>
    <vehicle id="48" depart="202.00" departLane="best" departPos="random" departSpeed="max" arrivalPos="275.31">
        <route edges="-E3 E4"/>
    </vehicle>
    <vehicle id="49" depart="204.00" departLane="best" departPos="random" departSpeed="max" arrivalPos="14.46">
        <route edges="-E2 E3"/>
    </vehicle>
    <vehicle id="50" depart="209.00" departLane="best" departPos="random" departSpeed="max" arrivalPos="263.23">
        <route edges="-E1 E3"/>
    </vehicle>
    <vehicle id="51" depart="213.00" departLane="best" departPos="random" departSpeed="max" arrivalPos="264.90">
        <route edges="-E1 E4"/>
    </vehicle>
    <vehicle id="52" depart="213.00" departLane="best" departPos="random" departSpeed="max" arrivalPos="254.70">
        <route edges="-E2 E3"/>
    </vehicle>
    <vehicle id="53" depart="220.00" departLane="best" departPos="random" departSpeed="max" arrivalPos="220.93">
        <route edges="-E2 E3"/>
    </vehicle>
    <vehicle id="54" depart="221.00" departLane="best" departPos="random" departSpeed="max" arrivalPos="268.98">
        <route edges="-E3 E4"/>
    </vehicle>
    <vehicle id="55" depart="222.00" departLane="best" departPos="random" departSpeed="max" arrivalPos="52.88">
        <route edges="-E4 E3"/>
    </vehicle>
    <vehicle id="56" depart="224.00" departLane="best" departPos="random" departSpeed="max" arrivalPos="170.86">
        <route edges="-E2 E1"/>
    </vehicle>
    <vehicle id="57" depart="233.00" departLane="best" departPos="random" departSpeed="max" arrivalPos="204.49">
        <route edges="-E4 E1"/>
    </vehicle>
    <vehicle id="58" depart="233.00" departLane="best" departPos="random" departSpeed="max" arrivalPos="154.52">
        <route edges="-E3 E2"/>
    </vehicle>
    <vehicle id="59" depart="234.00" departLane="best" departPos="random" departSpeed="max" arrivalPos="12.21">
        <route edges="-E1 E3"/>
    </vehicle>
    <vehicle id="61" depart="241.00" departLane="best" departPos="random" departSpeed="max" arrivalPos="287.83">
        <route edges="-E2 E4"/>
    </vehicle>
    <vehicle id="62" depart="247.00" departLane="best" departPos="random" departSpeed="max" arrivalPos="252.58">
        <route edges="-E1 E4"/>
    </vehicle>
    <vehicle id="65" depart="264.00" departLane="best" departPos="random" departSpeed="max" arrivalPos="49.43">
        <route edges="-E4 E2"/>
    </vehicle>
    <vehicle id="66" depart="267.00" departLane="best" departPos="random" departSpeed="max" arrivalPos="272.67">
        <route edges="-E2 E1"/>
    </vehicle>
    <vehicle id="67" depart="272.00" departLane="best" departPos="random" departSpeed="max" arrivalPos="180.20">
        <route edges="-E4 E1"/>
    </vehicle>
    <vehicle id="68" depart="275.00" departLane="best" departPos="random" departSpeed="max" arrivalPos="88.64">
        <route edges="-E2 E1"/>
    </vehicle>
    <vehicle id="69" depart="276.00" departLane="best" departPos="random" departSpeed="max" arrivalPos="1.20">
        <route edges="-E1 E3"/>
    </vehicle>
    <vehicle id="70" depart="277.00" departLane="best" departPos="random" departSpeed="max" arrivalPos="6.31">
        <route edges="-E1 E2"/>
    </vehicle>
    <vehicle id="72" depart="301.00" departLane="best" departPos="random" departSpeed="max" arrivalPos="162.70">
        <route edges="-E1 E2"/>
    </vehicle>
    <vehicle id="73" depart="321.00" departLane="best" departPos="random" departSpeed="max" arrivalPos="75.26">
        <route edges="-E2 E3"/>
    </vehicle>
    <vehicle id="74" depart="324.00" departLane="best" departPos="random" departSpeed="max" arrivalPos="242.60">
        <route edges="-E3 E4"/>
    </vehicle>
    <vehicle id="75" depart="326.00" departLane="best" departPos="random" departSpeed="max" arrivalPos="147.24">
        <route edges="-E4 E3"/>
    </vehicle>
    <vehicle id="78" depart="341.00" departLane="best" departPos="random" departSpeed="max" arrivalPos="224.18">
        <route edges="-E4 E1"/>
    </vehicle>
    <vehicle id="79" depart="342.00" departLane="best" departPos="random" departSpeed="max" arrivalPos="228.32">
        <route edges="-E3 E4"/>
    </vehicle>
    <vehicle id="80" depart="344.00" departLane="best" departPos="random" departSpeed="max" arrivalPos="150.11">
        <route edges="-E4 E1"/>
    </vehicle>
    <vehicle id="81" depart="345.00" departLane="best" departPos="random" departSpeed="max" arrivalPos="150.91">
        <route edges="-E3 E2"/>
    </vehicle>
    <vehicle id="82" depart="347.00" departLane="best" departPos="random" departSpeed="max" arrivalPos="0.25">
        <route edges="-E2 E3"/>
    </vehicle>
    <vehicle id="84" depart="351.00" departLane="best" departPos="random" departSpeed="max" arrivalPos="205.02">
        <route edges="-E2 E4"/>
    </vehicle>
    <vehicle id="85" depart="354.00" departLane="best" departPos="random" departSpeed="max" arrivalPos="113.27">
        <route edges="-E2 E3"/>
    </vehicle>
    <vehicle id="87" depart="370.00" departLane="best" departPos="random" departSpeed="max" arrivalPos="248.83">
        <route edges="-E3 E4"/>
    </vehicle>
    <vehicle id="88" depart="378.00" departLane="best" departPos="random" departSpeed="max" arrivalPos="138.47">
        <route edges="-E3 E4"/>
    </vehicle>
    <vehicle id="89" depart="380.00" departLane="best" departPos="random" departSpeed="max" arrivalPos="223.39">
        <route edges="-E4 E2"/>
    </vehicle>
    <vehicle id="90" depart="385.00" departLane="best" departPos="random" departSpeed="max" arrivalPos="51.09">
        <route edges="-E4 E2"/>
    </vehicle>
    <vehicle id="92" depart="397.00" departLane="best" departPos="random" departSpeed="max" arrivalPos="127.76">
        <route edges="-E1 E2"/>
    </vehicle>
    <vehicle id="93" depart="408.00" departLane="best" departPos="random" departSpeed="max" arrivalPos="175.33">
        <route edges="-E2 E4"/>
    </vehicle>
    <vehicle id="94" depart="409.00" departLane="best" departPos="random" departSpeed="max" arrivalPos="224.63">
        <route edges="-E3 E4"/>
    </vehicle>
    <vehicle id="95" depart="410.00" departLane="best" departPos="random" departSpeed="max" arrivalPos="192.11">
        <route edges="-E2 E3"/>
    </vehicle>
    <vehicle id="99" depart="428.00" departLane="best" departPos="random" departSpeed="max" arrivalPos="104.84">
        <route edges="-E4 E3"/>
    </vehicle>
    <vehicle id="100" depart="429.00" departLane="best" departPos="random" departSpeed="max" arrivalPos="262.18">
        <route edges="-E2 E3"/>
    </vehicle>
    <vehicle id="101" depart="434.00" departLane="best" departPos="random" departSpeed="max" arrivalPos="249.89">
        <route edges="-E3 E1"/>
    </vehicle>
    <vehicle id="104" depart="443.00" departLane="best" departPos="random" departSpeed="max" arrivalPos="5.92">
        <route edges="-E2 E3"/>
    </vehicle>
    <vehicle id="105" depart="445.00" departLane="best" departPos="random" departSpeed="max" arrivalPos="207.13">
        <route edges="-E3 E4"/>
    </vehicle>
    <vehicle id="106" depart="448.00" departLane="best" departPos="random" departSpeed="max" arrivalPos="181.50">
        <route edges="-E2 E3"/>
    </vehicle>
    <vehicle id="108" depart="454.00" departLane="best" departPos="random" departSpeed="max" arrivalPos="249.20">
        <route edges="-E2 E1"/>
    </vehicle>
    <vehicle id="109" depart="457.00" departLane="best" departPos="random" departSpeed="max" arrivalPos="153.46">
        <route edges="-E3 E2"/>
    </vehicle>
    <vehicle id="110" depart="458.00" departLane="best" departPos="random" departSpeed="max" arrivalPos="195.92">
        <route edges="-E3 E1"/>
    </vehicle>
    <vehicle id="111" depart="461.00" departLane="best" departPos="random" departSpeed="max" arrivalPos="80.93">
        <route edges="-E3 E4"/>
    </vehicle>
    <vehicle id="112" depart="464.00" departLane="best" departPos="random" departSpeed="max" arrivalPos="168.31">
        <route edges="-E3 E1"/>
    </vehicle>
    <vehicle id="113" depart="468.00" departLane="best" departPos="random" departSpeed="max" arrivalPos="260.02">
        <route edges="-E1 E4"/>
    </vehicle>
    <vehicle id="114" depart="470.00" departLane="best" departPos="random" departSpeed="max" arrivalPos="289.14">
        <route edges="-E2 E1"/>
    </vehicle>
    <vehicle id="115" depart="472.00" departLane="best" departPos="random" departSpeed="max" arrivalPos="9.16">
        <route edges="-E3 E4"/>
    </vehicle>
    <vehicle id="116" depart="475.00" departLane="best" departPos="random" departSpeed="max" arrivalPos="94.96">
        <route edges="-E4 E3"/>
    </vehicle>
    <vehicle id="117" depart="477.00" departLane="best" departPos="random" departSpeed="max" arrivalPos="235.62">
        <route edges="-E2 E4"/>
    </vehicle>
    <vehicle id="118" depart="480.00" departLane="best" departPos="random" departSpeed="max" arrivalPos="49.69">
        <route edges="-E1 E3"/>
    </vehicle>
    <vehicle id="119" depart="481.00" departLane="best" departPos="random" departSpeed="max" arrivalPos="273.94">
        <route edges="-E4 E2"/>
    </vehicle>
    <vehicle id="121" depart="511.00" departLane="best" departPos="random" departSpeed="max" arrivalPos="41.43">
        <route edges="-E3 E1"/>
    </vehicle>
    <vehicle id="122" depart="516.00" departLane="best" departPos="random" departSpeed="max" arrivalPos="225.41">
        <route edges="-E3 E2"/>
    </vehicle>
    <vehicle id="123" depart="519.00" departLane="best" departPos="random" departSpeed="max" arrivalPos="215.54">
        <route edges="-E1 E3"/>
    </vehicle>
    <vehicle id="124" depart="522.00" departLane="best" departPos="random" departSpeed="max" arrivalPos="119.10">
        <route edges="-E2 E1"/>
    </vehicle>
    <vehicle id="125" depart="522.00" departLane="best" departPos="random" departSpeed="max" arrivalPos="56.03">
        <route edges="-E2 E1"/>
    </vehicle>
    <vehicle id="126" depart="522.00" departLane="best" departPos="random" departSpeed="max" arrivalPos="266.66">
        <route edges="-E1 E3"/>
    </vehicle>
    <vehicle id="129" depart="545.00" departLane="best" departPos="random" departSpeed="max" arrivalPos="35.42">
        <route edges="-E2 E4"/>
    </vehicle>
    <vehicle id="130" depart="545.00" departLane="best" departPos="random" departSpeed="max" arrivalPos="119.91">
        <route edges="-E3 E1"/>
    </vehicle>
    <vehicle id="132" depart="548.00" departLane="best" departPos="random" departSpeed="max" arrivalPos="138.77">
        <route edges="-E1 E4"/>
    </vehicle>
    <vehicle id="133" depart="550.00" departLane="best" departPos="random" departSpeed="max" arrivalPos="214.48">
        <route edges="-E3 E1"/>
    </vehicle>
    <vehicle id="134" depart="551.00" departLane="best" departPos="random" departSpeed="max" arrivalPos="272.85">
        <route edges="-E2 E3"/>
    </vehicle>
    <vehicle id="135" depart="558.00" departLane="best" departPos="random" departSpeed="max" arrivalPos="239.23">
        <route edges="-E4 E1"/>
    </vehicle>
    <vehicle id="136" depart="567.00" departLane="best" departPos="random" departSpeed="max" arrivalPos="114.94">
        <route edges="-E4 E2"/>
    </vehicle>
    <vehicle id="137" depart="575.00" departLane="best" departPos="random" departSpeed="max" arrivalPos="119.98">
        <route edges="-E3 E4"/>
    </vehicle>
    <vehicle id="139" depart="581.00" departLane="best" departPos="random" departSpeed="max" arrivalPos="43.55">
        <route edges="-E4 E1"/>
    </vehicle>
    <vehicle id="140" depart="593.00" departLane="best" departPos="random" departSpeed="max" arrivalPos="113.85">
        <route edges="-E3 E1"/>
    </vehicle>
    <vehicle id="141" depart="594.00" departLane="best" departPos="random" departSpeed="max" arrivalPos="251.99">
        <route edges="-E1 E2"/>
    </vehicle>
    <vehicle id="142" depart="596.00" departLane="best" departPos="random" departSpeed="max" arrivalPos="18.26">
        <route edges="-E4 E1"/>
    </vehicle>
    <vehicle id="143" depart="603.00" departLane="best" departPos="random" departSpeed="max" arrivalPos="82.08">
        <route edges="-E4 E1"/>
    </vehicle>
    <vehicle id="146" depart="607.00" departLane="best" departPos="random" departSpeed="max" arrivalPos="116.91">
        <route edges="-E4 E3"/>
    </vehicle>
    <vehicle id="147" depart="610.00" departLane="best" departPos="random" departSpeed="max" arrivalPos="192.48">
        <route edges="-E3 E4"/>
    </vehicle>
    <vehicle id="149" depart="621.00" departLane="best" departPos="random" departSpeed="max" arrivalPos="181.61">
        <route edges="-E3 E2"/>
    </vehicle>
    <vehicle id="152" depart="635.00" departLane="best" departPos="random" departSpeed="max" arrivalPos="198.72">
        <route edges="-E4 E2"/>
    </vehicle>
    <vehicle id="154" depart="650.00" departLane="best" departPos="random" departSpeed="max" arrivalPos="292.92">
        <route edges="-E4 E2"/>
    </vehicle>
    <vehicle id="155" depart="656.00" departLane="best" departPos="random" departSpeed="max" arrivalPos="256.37">
        <route edges="-E1 E4"/>
    </vehicle>
    <vehicle id="156" depart="657.00" departLane="best" departPos="random" departSpeed="max" arrivalPos="27.37">
        <route edges="-E4 E1"/>
    </vehicle>
    <vehicle id="157" depart="659.00" departLane="best" departPos="random" departSpeed="max" arrivalPos="111.08">
        <route edges="-E4 E2"/>
    </vehicle>
    <vehicle id="158" depart="666.00" departLane="best" departPos="random" departSpeed="max" arrivalPos="159.44">
        <route edges="-E4 E1"/>
    </vehicle>
    <vehicle id="159" depart="671.00" departLane="best" departPos="random" departSpeed="max" arrivalPos="118.56">
        <route edges="-E2 E1"/>
    </vehicle>
    <vehicle id="160" depart="678.00" departLane="best" departPos="random" departSpeed="max" arrivalPos="7.39">
        <route edges="-E3 E4"/>
    </vehicle>
    <vehicle id="161" depart="680.00" departLane="best" departPos="random" departSpeed="max" arrivalPos="240.12">
        <route edges="-E3 E1"/>
    </vehicle>
    <vehicle id="163" depart="693.00" departLane="best" departPos="random" departSpeed="max" arrivalPos="39.00">
        <route edges="-E3 E2"/>
    </vehicle>
    <vehicle id="166" depart="698.00" departLane="best" departPos="random" departSpeed="max" arrivalPos="101.60">
        <route edges="-E3 E2"/>
    </vehicle>
    <vehicle id="168" depart="704.00" departLane="best" departPos="random" departSpeed="max" arrivalPos="134.58">
        <route edges="-E1 E3"/>
    </vehicle>
    <vehicle id="169" depart="704.00" departLane="best" departPos="random" departSpeed="max" arrivalPos="250.44">
        <route edges="-E4 E3"/>
    </vehicle>
    <vehicle id="171" depart="707.00" departLane="best" departPos="random" departSpeed="max" arrivalPos="47.11">
        <route edges="-E4 E2"/>
    </vehicle>
    <vehicle id="172" depart="708.00" departLane="best" departPos="random" departSpeed="max" arrivalPos="29.21">
        <route edges="-E2 E3"/>
    </vehicle>
    <vehicle id="173" depart="710.00" departLane="best" departPos="random" departSpeed="max" arrivalPos="13.07">
        <route edges="-E2 E3"/>
    </vehicle>
    <vehicle id="174" depart="723.00" departLane="best" departPos="random" departSpeed="max" arrivalPos="94.10">
        <route edges="-E4 E3"/>
    </vehicle>
    <vehicle id="177" depart="747.00" departLane="best" departPos="random" departSpeed="max" arrivalPos="97.67">
        <route edges="-E1 E4"/>
    </vehicle>
    <vehicle id="178" depart="751.00" departLane="best" departPos="random" departSpeed="max" arrivalPos="293.82">
        <route edges="-E2 E1"/>
    </vehicle>
    <vehicle id="179" depart="753.00" departLane="best" departPos="random" departSpeed="max" arrivalPos="278.29">
        <route edges="-E2 E4"/>
    </vehicle>
    <vehicle id="183" depart="774.00" departLane="best" departPos="random" departSpeed="max" arrivalPos="223.99">
        <route edges="-E4 E3"/>
    </vehicle>
    <vehicle id="184" depart="776.00" departLane="best" departPos="random" departSpeed="max" arrivalPos="193.05">
        <route edges="-E2 E4"/>
    </vehicle>
    <vehicle id="186" depart="778.00" departLane="best" departPos="random" departSpeed="max" arrivalPos="44.51">
        <route edges="-E3 E1"/>
    </vehicle>
    <vehicle id="188" depart="785.00" departLane="best" departPos="random" departSpeed="max" arrivalPos="218.39">
        <route edges="-E1 E2"/>
    </vehicle>
    <vehicle id="190" depart="798.00" departLane="best" departPos="random" departSpeed="max" arrivalPos="78.51">
        <route edges="-E2 E1"/>
    </vehicle>
    <vehicle id="192" depart="805.00" departLane="best" departPos="random" departSpeed="max" arrivalPos="192.97">
        <route edges="-E1 E4"/>
    </vehicle>
    <vehicle id="193" depart="805.00" departLane="best" departPos="random" departSpeed="max" arrivalPos="6.55">
        <route edges="-E1 E4"/>
    </vehicle>
    <vehicle id="194" depart="806.00" departLane="best" departPos="random" departSpeed="max" arrivalPos="213.08">
        <route edges="-E2 E4"/>
    </vehicle>
    <vehicle id="195" depart="808.00" departLane="best" departPos="random" departSpeed="max" arrivalPos="179.42">
        <route edges="-E2 E4"/>
    </vehicle>
    <vehicle id="198" depart="827.00" departLane="best" departPos="random" departSpeed="max" arrivalPos="244.21">
        <route edges="-E4 E3"/>
    </vehicle>
    <vehicle id="199" depart="828.00" departLane="best" departPos="random" departSpeed="max" arrivalPos="60.41">
        <route edges="-E4 E2"/>
    </vehicle>
    <vehicle id="200" depart="832.00" departLane="best" departPos="random" departSpeed="max" arrivalPos="154.29">
        <route edges="-E3 E4"/>
    </vehicle>
    <vehicle id="202" depart="848.00" departLane="best" departPos="random" departSpeed="max" arrivalPos="12.04">
        <route edges="-E4 E3"/>
    </vehicle>
    <vehicle id="203" depart="848.00" departLane="best" departPos="random" departSpeed="max" arrivalPos="56.93">
        <route edges="-E4 E2"/>
    </vehicle>
    <vehicle id="204" depart="852.00" departLane="best" departPos="random" departSpeed="max" arrivalPos="1.65">
        <route edges="-E2 E3"/>
    </vehicle>
    <vehicle id="205" depart="852.00" departLane="best" departPos="random" departSpeed="max" arrivalPos="266.16">
        <route edges="-E1 E2"/>
    </vehicle>
    <vehicle id="206" depart="862.00" departLane="best" departPos="random" departSpeed="max" arrivalPos="162.91">
        <route edges="-E3 E4"/>
    </vehicle>
    <vehicle id="208" depart="864.00" departLane="best" departPos="random" departSpeed="max" arrivalPos="286.01">
        <route edges="-E3 E4"/>
    </vehicle>
    <vehicle id="209" depart="872.00" departLane="best" departPos="random" departSpeed="max" arrivalPos="92.33">
        <route edges="-E2 E3"/>
    </vehicle>
    <vehicle id="210" depart="873.00" departLane="best" departPos="random" departSpeed="max" arrivalPos="175.88">
        <route edges="-E2 E3"/>
    </vehicle>
    <vehicle id="211" depart="873.00" departLane="best" departPos="random" departSpeed="max" arrivalPos="48.89">
        <route edges="-E3 E4"/>
    </vehicle>
    <vehicle id="212" depart="879.00" departLane="best" departPos="random" departSpeed="max" arrivalPos="220.84">
        <route edges="-E3 E4"/>
    </vehicle>
    <vehicle id="213" depart="884.00" departLane="best" departPos="random" departSpeed="max" arrivalPos="120.64">
        <route edges="-E3 E2"/>
    </vehicle>
    <vehicle id="217" depart="898.00" departLane="best" departPos="random" departSpeed="max" arrivalPos="144.43">
        <route edges="-E2 E3"/>
    </vehicle>
    <vehicle id="220" depart="920.00" departLane="best" departPos="random" departSpeed="max" arrivalPos="257.37">
        <route edges="-E1 E2"/>
    </vehicle>
    <vehicle id="221" depart="923.00" departLane="best" departPos="random" departSpeed="max" arrivalPos="299.32">
        <route edges="-E3 E2"/>
    </vehicle>
    <vehicle id="222" depart="927.00" departLane="best" departPos="random" departSpeed="max" arrivalPos="221.86">
        <route edges="-E2 E3"/>
    </vehicle>
    <vehicle id="223" depart="931.00" departLane="best" departPos="random" departSpeed="max" arrivalPos="233.10">
        <route edges="-E3 E2"/>
    </vehicle>
    <vehicle id="224" depart="937.00" departLane="best" departPos="random" departSpeed="max" arrivalPos="147.41">
        <route edges="-E2 E3"/>
    </vehicle>
    <vehicle id="225" depart="938.00" departLane="best" departPos="random" departSpeed="max" arrivalPos="27.41">
        <route edges="-E4 E3"/>
    </vehicle>
    <vehicle id="226" depart="940.00" departLane="best" departPos="random" departSpeed="max" arrivalPos="68.77">
        <route edges="-E1 E4"/>
    </vehicle>
    <vehicle id="227" depart="941.00" departLane="best" departPos="random" departSpeed="max" arrivalPos="143.94">
        <route edges="-E1 E2"/>
    </vehicle>
    <vehicle id="228" depart="943.00" departLane="best" departPos="random" departSpeed="max" arrivalPos="217.05">
        <route edges="-E4 E2"/>
    </vehicle>
    <vehicle id="229" depart="961.00" departLane="best" departPos="random" departSpeed="max" arrivalPos="183.57">
        <route edges="-E4 E1"/>
    </vehicle>
    <vehicle id="230" depart="967.00" departLane="best" departPos="random" departSpeed="max" arrivalPos="160.35">
        <route edges="-E4 E3"/>
    </vehicle>
    <vehicle id="231" depart="970.00" departLane="best" departPos="random" departSpeed="max" arrivalPos="290.88">
        <route edges="-E2 E4"/>
    </vehicle>
    <vehicle id="232" depart="983.00" departLane="best" departPos="random" departSpeed="max" arrivalPos="125.89">
        <route edges="-E1 E3"/>
    </vehicle>
    <vehicle id="233" depart="985.00" departLane="best" departPos="random" departSpeed="max" arrivalPos="79.60">
        <route edges="-E3 E1"/>
    </vehicle>
    <vehicle id="236" depart="999.00" departLane="best" departPos="random" departSpeed="max" arrivalPos="200.61">
        <route edges="-E1 E2"/>
    </vehicle>
    <vehicle id="237" depart="1001.00" departLane="best" departPos="random" departSpeed="max" arrivalPos="271.52">
        <route edges="-E2 E3"/>
    </vehicle>
    <vehicle id="238" depart="1002.00" departLane="best" departPos="random" departSpeed="max" arrivalPos="31.75">
        <route edges="-E1 E4"/>
    </vehicle>
    <vehicle id="239" depart="1008.00" departLane="best" departPos="random" departSpeed="max" arrivalPos="60.36">
        <route edges="-E2 E4"/>
    </vehicle>
    <vehicle id="240" depart="1014.00" departLane="best" departPos="random" departSpeed="max" arrivalPos="266.38">
        <route edges="-E3 E2"/>
    </vehicle>
    <vehicle id="241" depart="1015.00" departLane="best" departPos="random" departSpeed="max" arrivalPos="147.74">
        <route edges="-E4 E2"/>
    </vehicle>
    <vehicle id="242" depart="1016.00" departLane="best" departPos="random" departSpeed="max" arrivalPos="64.39">
        <route edges="-E4 E3"/>
    </vehicle>
    <vehicle id="243" depart="1022.00" departLane="best" departPos="random" departSpeed="max" arrivalPos="145.79">
        <route edges="-E4 E2"/>
    </vehicle>
    <vehicle id="244" depart="1023.00" departLane="best" departPos="random" departSpeed="max" arrivalPos="197.18">
        <route edges="-E1 E4"/>
    </vehicle>
    <vehicle id="246" depart="1028.00" departLane="best" departPos="random" departSpeed="max" arrivalPos="227.96">
        <route edges="-E3 E2"/>
    </vehicle>
    <vehicle id="247" depart="1032.00" departLane="best" departPos="random" departSpeed="max" arrivalPos="82.37">