<?xml version="1.0" encoding="UTF-8"?>

<!-- generated on 2023-08-09 10:07:43 by Eclipse SUMO netedit Version 1.16.0
<configuration xmlns:xsi="http://www.w3.org/2001/XMLSchema-instance" xsi:noNamespaceSchemaLocation="http://sumo.dlr.de/xsd/netconvertConfiguration.xsd">

    <input>
        <sumo-net-file value="/Users/xs_mac/Desktop/GitHub/MARL4TSC/environments/2lane/2lane.net.xml"/>
    </input>

    <output>
        <output-file value="/Users/xs_mac/Desktop/GitHub/MARL4TSC/environments/2lane/2lane.net.xml"/>
    </output>

    <processing>
        <geometry.min-radius.fix.railways value="false"/>
        <geometry.max-grade.fix value="false"/>
        <offset.disable-normalization value="true"/>
        <lefthand value="0"/>
    </processing>

    <junctions>
        <no-turnarounds value="true"/>
        <junctions.corner-detail value="5"/>
        <junctions.limit-turn-speed value="5.50"/>
        <rectangular-lane-cut value="0"/>
    </junctions>

    <pedestrian>
        <walkingareas value="0"/>
    </pedestrian>

</configuration>
-->

<net version="1.16" junctionCornerDetail="5" limitTurnSpeed="5.50" xmlns:xsi="http://www.w3.org/2001/XMLSchema-instance" xsi:noNamespaceSchemaLocation="http://sumo.dlr.de/xsd/net_file.xsd">

    <location netOffset="0.00,0.00" convBoundary="-200.00,-100.00,400.00,500.00" origBoundary="-10000000000.00,-10000000000.00,10000000000.00,10000000000.00" projParameter="!"/>

    <edge id=":J3_0" function="internal">
        <lane id=":J3_0_0" index="0" speed="6.51" length="9.03" shape="95.20,210.40 94.85,207.95 93.80,206.20 92.05,205.15 89.60,204.80"/>
    </edge>
    <edge id=":J3_1" function="internal">
        <lane id=":J3_1_0" index="0" speed="20.00" length="20.80" shape="95.20,210.40 95.20,189.60"/>
    </edge>
    <edge id=":J3_2" function="internal">
        <lane id=":J3_2_0" index="0" speed="9.26" length="19.35" shape="98.40,210.40 99.15,205.15 101.40,201.40 105.15,199.15 110.40,198.40"/>
    </edge>
    <edge id=":J3_3" function="internal">
        <lane id=":J3_3_0" index="0" speed="6.51" length="9.03" shape="110.40,204.80 107.95,205.15 106.20,206.20 105.15,207.95 104.80,210.40"/>
    </edge>
    <edge id=":J3_4" function="internal">
        <lane id=":J3_4_0" index="0" speed="20.00" length="20.80" shape="110.40,204.80 89.60,204.80"/>
    </edge>
    <edge id=":J3_5" function="internal">
        <lane id=":J3_5_0" index="0" speed="9.26" length="19.35" shape="110.40,201.60 105.15,200.85 101.40,198.60 99.15,194.85 98.40,189.60"/>
    </edge>
    <edge id=":J3_6" function="internal">
        <lane id=":J3_6_0" index="0" speed="6.51" length="9.03" shape="104.80,189.60 105.15,192.05 106.20,193.80 107.95,194.85 110.40,195.20"/>
    </edge>
    <edge id=":J3_7" function="internal">
        <lane id=":J3_7_0" index="0" speed="20.00" length="20.80" shape="104.80,189.60 104.80,210.40"/>
    </edge>
    <edge id=":J3_8" function="internal">
        <lane id=":J3_8_0" index="0" speed="9.26" length="19.35" shape="101.60,189.60 100.85,194.85 98.60,198.60 94.85,200.85 89.60,201.60"/>
    </edge>
    <edge id=":J3_9" function="internal">
        <lane id=":J3_9_0" index="0" speed="6.51" length="9.03" shape="89.60,195.20 92.05,194.85 93.80,193.80 94.85,192.05 95.20,189.60"/>
    </edge>
    <edge id=":J3_10" function="internal">
        <lane id=":J3_10_0" index="0" speed="20.00" length="20.80" shape="89.60,195.20 110.40,195.20"/>
    </edge>
    <edge id=":J3_11" function="internal">
        <lane id=":J3_11_0" index="0" speed="9.26" length="19.35" shape="89.60,198.40 94.85,199.15 98.60,201.40 100.85,205.15 101.60,210.40"/>
    </edge>

    <edge id="-E1" from="J4" to="J3" priority="-1" length="300.00">
        <lane id="-E1_0" index="0" speed="20.00" length="300.00" shape="400.00,204.80 110.40,204.80"/>
        <lane id="-E1_1" index="1" speed="20.00" length="300.00" shape="400.00,201.60 110.40,201.60"/>
    </edge>
    <edge id="-E2" from="J5" to="J3" priority="-1" length="300.00">
        <lane id="-E2_0" index="0" speed="20.00" length="300.00" shape="104.80,-100.00 104.80,189.60"/>
        <lane id="-E2_1" index="1" speed="20.00" length="300.00" shape="101.60,-100.00 101.60,189.60"/>
    </edge>
    <edge id="-E3" from="J6" to="J3" priority="-1" length="300.00">
        <lane id="-E3_0" index="0" speed="20.00" length="300.00" shape="-200.00,195.20 89.60,195.20"/>
        <lane id="-E3_1" index="1" speed="20.00" length="300.00" shape="-200.00,198.40 89.60,198.40"/>
    </edge>
    <edge id="-E4" from="J7" to="J3" priority="-1" length="300.00">
        <lane id="-E4_0" index="0" speed="20.00" length="300.00" shape="95.20,500.00 95.20,210.40"/>
        <lane id="-E4_1" index="1" speed="20.00" length="300.00" shape="98.40,500.00 98.40,210.40"/>
    </edge>
    <edge id="E1" from="J3" to="J4" priority="-1" length="300.00">
        <lane id="E1_0" index="0" speed="20.00" length="300.00" shape="110.40,195.20 400.00,195.20"/>
        <lane id="E1_1" index="1" speed="20.00" length="300.00" shape="110.40,198.40 400.00,198.40"/>
    </edge>
    <edge id="E2" from="J3" to="J5" priority="-1" length="300.00">
        <lane id="E2_0" index="0" speed="20.00" length="300.00" shape="95.20,189.60 95.20,-100.00"/>
        <lane id="E2_1" index="1" speed="20.00" length="300.00" shape="98.40,189.60 98.40,-100.00"/>
    </edge>
    <edge id="E3" from="J3" to="J6" priority="-1" length="300.00">
        <lane id="E3_0" index="0" speed="20.00" length="300.00" shape="89.60,204.80 -200.00,204.80"/>
        <lane id="E3_1" index="1" speed="20.00" length="300.00" shape="89.60,201.60 -200.00,201.60"/>
    </edge>
    <edge id="E4" from="J3" to="J7" priority="-1" length="300.00">
        <lane id="E4_0" index="0" speed="20.00" length="300.00" shape="104.80,210.40 104.80,500.00"/>
        <lane id="E4_1" index="1" speed="20.00" length="300.00" shape="101.60,210.40 101.60,500.00"/>
    </edge>

    <tlLogic id="J3" type="static" programID="0" offset="0">
        <phase duration="20" state="GGrrrrGGrrrr"/>
        <phase duration="3"  state="yyrrrryyrrrr"/>
        <phase duration="10" state="rrGrrrrrGrrr"/>
        <phase duration="3"  state="rryrrrrryrrr"/>
        <phase duration="20" state="rrrGGrrrrGGr"/>
        <phase duration="3"  state="rrryyrrrryyr"/>
        <phase duration="10" state="rrrrrGrrrrrG"/>
        <phase duration="3"  state="rrrrryrrrrry"/>
    </tlLogic>

    <junction id="J3" type="traffic_light" x="100.00" y="200.00" incLanes="-E4_0 -E4_1 -E1_0 -E1_1 -E2_0 -E2_1 -E3_0 -E3_1" intLanes=":J3_0_0 :J3_1_0 :J3_2_0 :J3_3_0 :J3_4_0 :J3_5_0 :J3_6_0 :J3_7_0 :J3_8_0 :J3_9_0 :J3_10_0 :J3_11_0" shape="93.60,210.40 106.40,210.40 106.84,208.18 107.40,207.40 108.18,206.84 109.18,206.51 110.40,206.40 110.40,193.60 108.18,193.16 107.40,192.60 106.84,191.82 106.51,190.82 106.40,189.60 93.60,189.60 93.16,191.82 92.60,192.60 91.82,193.16 90.82,193.49 89.60,193.60 89.60,206.40 91.82,206.84 92.60,207.40 93.16,208.18 93.49,209.18">
        <request index="0"  response="000000000000" foes="000000010000" cont="0"/>
        <request index="1"  response="000000000000" foes="111100010000" cont="0"/>
        <request index="2"  response="000010000000" foes="100010110000" cont="0"/>
        <request index="3"  response="000010000000" foes="000010000000" cont="0"/>
        <request index="4"  response="000010000111" foes="100010000111" cont="0"/>
        <request index="5"  response="010110000100" foes="010110000100" cont="0"/>
        <request index="6"  response="000000000000" foes="010000000000" cont="0"/>
        <request index="7"  response="000000000000" foes="010000111100" cont="0"/>
        <request index="8"  response="000000000010" foes="110000100010" cont="0"/>
        <request index="9"  response="000000000010" foes="000000000010" cont="0"/>
        <request index="10" response="000111000010" foes="000111100010" cont="0"/>
        <request index="11" response="000100010110" foes="000100010110" cont="0"/>
    </junction>
    <junction id="J4" type="dead_end" x="400.00" y="200.00" incLanes="E1_0 E1_1" intLanes="" shape="400.00,200.00 400.00,193.60 400.00,200.00"/>
    <junction id="J5" type="dead_end" x="100.00" y="-100.00" incLanes="E2_0 E2_1" intLanes="" shape="100.00,-100.00 93.60,-100.00 100.00,-100.00"/>
    <junction id="J6" type="dead_end" x="-200.00" y="200.00" incLanes="E3_0 E3_1" intLanes="" shape="-200.00,200.00 -200.00,206.40 -200.00,200.00"/>
    <junction id="J7" type="dead_end" x="100.00" y="500.00" incLanes="E4_0 E4_1" intLanes="" shape="100.00,500.00 106.40,500.00 100.00,500.00"/>

    <connection from="-E1" to="E4" fromLane="0" toLane="0" via=":J3_3_0" tl="J3" linkIndex="3" dir="r" state="o"/>
    <connection from="-E1" to="E3" fromLane="0" toLane="0" via=":J3_4_0" tl="J3" linkIndex="4" dir="s" state="o"/>
    <connection from="-E1" to="E2" fromLane="1" toLane="1" via=":J3_5_0" tl="J3" linkIndex="5" dir="l" state="o"/>
    <connection from="-E2" to="E1" fromLane="0" toLane="0" via=":J3_6_0" tl="J3" linkIndex="6" dir="r" state="O"/>
    <connection from="-E2" to="E4" fromLane="0" toLane="0" via=":J3_7_0" tl="J3" linkIndex="7" dir="s" state="O"/>
    <connection from="-E2" to="E3" fromLane="1" toLane="1" via=":J3_8_0" tl="J3" linkIndex="8" dir="l" state="o"/>
    <connection from="-E3" to="E2" fromLane="0" toLane="0" via=":J3_9_0" tl="J3" linkIndex="9" dir="r" state="o"/>
    <connection from="-E3" to="E1" fromLane="0" toLane="0" via=":J3_10_0" tl="J3" linkIndex="10" dir="s" state="o"/>
    <connection from="-E3" to="E4" fromLane="1" toLane="1" via=":J3_11_0" tl="J3" linkIndex="11" dir="l" state="o"/>
    <connection from="-E4" to="E3" fromLane="0" toLane="0" via=":J3_0_0" tl="J3" linkIndex="0" dir="r" state="O"/>
    <connection from="-E4" to="E2" fromLane="0" toLane="0" via=":J3_1_0" tl="J3" linkIndex="1" dir="s" state="O"/>
    <connection from="-E4" to="E1" fromLane="1" toLane="1" via=":J3_2_0" tl="J3" linkIndex="2" dir="l" state="o"/>

    <connection from=":J3_0" to="E3" fromLane="0" toLane="0" dir="r" state="M"/>
    <connection from=":J3_1" to="E2" fromLane="0" toLane="0" dir="s" state="M"/>
    <connection from=":J3_2" to="E1" fromLane="0" toLane="1" dir="l" state="M"/>
    <connection from=":J3_3" to="E4" fromLane="0" toLane="0" dir="r" state="M"/>
    <connection from=":J3_4" to="E3" fromLane="0" toLane="0" dir="s" state="M"/>
    <connection from=":J3_5" to="E2" fromLane="0" toLane="1" dir="l" state="M"/>
    <connection from=":J3_6" to="E1" fromLane="0" toLane="0" dir="r" state="M"/>
    <connection from=":J3_7" to="E4" fromLane="0" toLane="0" dir="s" state="M"/>
    <connection from=":J3_8" to="E3" fromLane="0" toLane="1" dir="l" state="M"/>
    <connection from=":J3_9" to="E2" fromLane="0" toLane="0" dir="r" state="M"/>
    <connection from=":J3_10" to="E1" fromLane="0" toLane="0" dir="s" state="M"/>
    <connection from=":J3_11" to="E4" fromLane="0" toLane="1" dir="l" state="M"/>

</net>
