<configuration>
  <input>
    <net-file value="2lane.net.xml"/>
    <route-files value="2lane.rou.xml"/>
  </input>
  <time>
    <begin value="0"/>
    <end value="3600"/>
  </time>
</configuration>
