<?xml version="1.0" encoding="UTF-8"?>

<!-- generated on 2023-08-10 13:41:19.138547 by randomTrips.py UNKNOWN
<configuration>
    <lanes value="True"/>
    <net-file value="2lane/2lane.net.xml"/>
    <period value="5.0 2.5 1.25"/>
    <random-arrivalpos value="True"/>
    <random-depart value="True"/>
    <route-file value="2lane/2lane.rou.xml"/>
    <seed value="1"/>
    <trip-attributes value="departLane=&quot;best&quot; departSpeed=&quot;max&quot; departPos=&quot;random&quot;"/>
</configuration>
-->

<!-- generated on Thu Aug 10 13:41:18 2023 by Eclipse SUMO duarouter Version 1.4.0
<configuration xmlns:xsi="http://www.w3.org/2001/XMLSchema-instance" xsi:noNamespaceSchemaLocation="http://sumo.dlr.de/xsd/duarouterConfiguration.xsd">

    <input>
        <net-file value="2lane/2lane.net.xml"/>
        <route-files value="trips.trips.xml"/>
    </input>

    <output>
        <output-file value="2lane/2lane.rou.xml"/>
        <alternatives-output value="NUL"/>
    </output>

    <time>
        <begin value="0.0"/>
        <end value="3600.0"/>
    </time>

    <report>
        <no-warnings value="true"/>
        <ignore-errors value="true"/>
        <no-step-log value="true"/>
    </report>

</configuration>
-->

<routes xmlns:xsi="http://www.w3.org/2001/XMLSchema-instance" xsi:noNamespaceSchemaLocation="http://sumo.dlr.de/xsd/routes_file.xsd">
    <vehicle id="0" depart="3.00" departLane="best" departPos="random" departSpeed="max" arrivalPos="202.34">
        <route edges="-E2 E1"/>
    </vehicle>
    <vehicle id="2" depart="11.00" departLane="best" departPos="random" departSpeed="max" arrivalPos="145.35">
        <route edges="-E4 E3"/>
    </vehicle>
    <vehicle id="3" depart="17.00" departLane="best" departPos="random" departSpeed="max" arrivalPos="217.64">
        <route edges="-E4 E1"/>
    </vehicle>
    <vehicle id="5" depart="25.00" departLane="best" departPos="random" departSpeed="max" arrivalPos="180.06">
        <route edges="-E1 E4"/>
    </vehicle>
    <vehicle id="6" depart="29.00" departLane="best" departPos="random" departSpeed="max" arrivalPos="102.09">
        <route edges="-E4 E2"/>
    </vehicle>
    <vehicle id="7" depart="34.00" departLane="best" departPos="random" departSpeed="max" arrivalPos="181.19">
        <route edges="-E2 E4"/>
    </vehicle>
    <vehicle id="9" depart="36.00" departLane="best" departPos="random" departSpeed="max" arrivalPos="11.74">
        <route edges="-E3 E1"/>
    </vehicle>
    <vehicle id="10" depart="37.00" departLane="best" departPos="random" departSpeed="max" arrivalPos="236.43">
        <route edges="-E1 E4"/>
    </vehicle>
    <vehicle id="11" depart="42.00" departLane="best" departPos="random" departSpeed="max" arrivalPos="184.56">
        <route edges="-E4 E2"/>
    </vehicle>
    <vehicle id="12" depart="44.00" departLane="best" departPos="random" departSpeed="max" arrivalPos="171.23">
        <route edges="-E4 E2"/>
    </vehicle>
    <vehicle id="14" depart="48.00" departLane="best" departPos="random" departSpeed="max" arrivalPos="277.52">
        <route edges="-E4 E3"/>
    </vehicle>
    <vehicle id="16" depart="57.00" departLane="best" departPos="random" departSpeed="max" arrivalPos="201.12">
        <route edges="-E4 E1"/>
    </vehicle>
    <vehicle id="19" depart="60.00" departLane="best" departPos="random" departSpeed="max" arrivalPos="50.22">
        <route edges="-E2 E1"/>
    </vehicle>
    <vehicle id="20" depart="62.00" departLane="best" departPos="random" departSpeed="max" arrivalPos="30.85">
        <route edges="-E1 E3"/>
    </vehicle>
    <vehicle id="21" depart="62.00" departLane="best" departPos="random" departSpeed="max" arrivalPos="291.08">
        <route edges="-E4 E2"/>
    </vehicle>
    <vehicle id="22" depart="66.00" departLane="best" departPos="random" departSpeed="max" arrivalPos="76.02">
        <route edges="-E4 E2"/>
    </vehicle>
    <vehicle id="23" depart="70.00" departLane="best" departPos="random" departSpeed="max" arrivalPos="195.62">
        <route edges="-E2 E1"/>
    </vehicle>
    <vehicle id="25" depart="76.00" departLane="best" departPos="random" departSpeed="max" arrivalPos="134.95">
        <route edges="-E2 E3"/>
    </vehicle>
    <vehicle id="26" depart="77.00" departLane="best" departPos="random" departSpeed="max" arrivalPos="274.02">
        <route edges="-E2 E1"/>
    </vehicle>
    <vehicle id="28" depart="97.00" departLane="best" departPos="random" departSpeed="max" arrivalPos="293.99">
        <route edges="-E1 E3"/>
    </vehicle>
    <vehicle id="30" depart="120.00" departLane="best" departPos="random" departSpeed="max" arrivalPos="92.20">
        <route edges="-E2 E3"/>
    </vehicle>
    <vehicle id="32" depart="142.00" departLane="best" departPos="random" departSpeed="max" arrivalPos="195.60">
        <route edges="-E4 E2"/>
    </vehicle>
    <vehicle id="33" depart="144.00" departLane="best" departPos="random" departSpeed="max" arrivalPos="117.14">
        <route edges="-E3 E4"/>
    </vehicle>
    <vehicle id="36" depart="170.00" departLane="best" departPos="random" departSpeed="max" arrivalPos="173.70">
        <route edges="-E2 E3"/>
    </vehicle>
    <vehicle id="37" depart="177.00" departLane="best" departPos="random" departSpeed="max" arrivalPos="6.11">
        <route edges="-E3 E1"/>
    </vehicle>
    <vehicle id="40" depart="202.00" departLane="best" departPos="random" departSpeed="max" arrivalPos="147.98">
        <route edges="-E2 E4"/>
    </vehicle>
    <vehicle id="41" depart="204.00" departLane="best" departPos="random" departSpeed="max" arrivalPos="150.43">
        <route edges="-E4 E1"/>
    </vehicle>
    <vehicle id="42" depart="209.00" departLane="best" departPos="random" departSpeed="max" arrivalPos="284.77">
        <route edges="-E4 E1"/>
    </vehicle>
    <vehicle id="43" depart="213.00" departLane="best" departPos="random" departSpeed="max" arrivalPos="295.47">
        <route edges="-E1 E4"/>
    </vehicle>
    <vehicle id="44" depart="221.00" departLane="best" departPos="random" departSpeed="max" arrivalPos="32.06">
        <route edges="-E4 E2"/>
    </vehicle>
    <vehicle id="45" depart="222.00" departLane="best" departPos="random" departSpeed="max" arrivalPos="88.05">
        <route edges="-E3 E4"/>
    </vehicle>
    <vehicle id="46" depart="224.00" departLane="best" departPos="random" departSpeed="max" arrivalPos="273.14">
        <route edges="-E4 E1"/>
    </vehicle>
    <vehicle id="47" depart="233.00" departLane="best" departPos="random" departSpeed="max" arrivalPos="270.93">
        <route edges="-E1 E2"/>
    </vehicle>
    <vehicle id="50" depart="257.00" departLane="best" departPos="random" departSpeed="max" arrivalPos="214.45">
        <route edges="-E2 E1"/>
    </vehicle>
    <vehicle id="51" depart="264.00" departLane="best" departPos="random" departSpeed="max" arrivalPos="19.32">
        <route edges="-E3 E2"/>
    </vehicle>
    <vehicle id="53" depart="275.00" departLane="best" departPos="random" departSpeed="max" arrivalPos="135.99">
        <route edges="-E3 E4"/>
    </vehicle>
    <vehicle id="55" depart="299.00" departLane="best" departPos="random" departSpeed="max" arrivalPos="125.01">
        <route edges="-E1 E3"/>
    </vehicle>
    <vehicle id="56" depart="321.00" departLane="best" departPos="random" departSpeed="max" arrivalPos="106.48">
        <route edges="-E3 E1"/>
    </vehicle>
    <vehicle id="58" depart="326.00" departLane="best" departPos="random" departSpeed="max" arrivalPos="120.32">
        <route edges="-E4 E2"/>
    </vehicle>
    <vehicle id="59" depart="328.00" departLane="best" departPos="random" departSpeed="max" arrivalPos="2.24">
        <route edges="-E3 E1"/>
    </vehicle>
    <vehicle id="61" depart="342.00" departLane="best" departPos="random" departSpeed="max" arrivalPos="219.43">
        <route edges="-E2 E3"/>
    </vehicle>
    <vehicle id="62" depart="344.00" departLane="best" departPos="random" departSpeed="max" arrivalPos="143.65">
        <route edges="-E1 E2"/>
    </vehicle>
    <vehicle id="63" depart="345.00" departLane="best" departPos="random" departSpeed="max" arrivalPos="168.12">
        <route edges="-E1 E2"/>
    </vehicle>
    <vehicle id="65" depart="351.00" departLane="best" departPos="random" departSpeed="max" arrivalPos="21.47">
        <route edges="-E3 E1"/>
    </vehicle>
    <vehicle id="66" depart="354.00" departLane="best" departPos="random" departSpeed="max" arrivalPos="47.84">
        <route edges="-E3 E4"/>
    </vehicle>
    <vehicle id="68" depart="370.00" departLane="best" departPos="random" departSpeed="max" arrivalPos="111.48">
        <route edges="-E3 E4"/>
    </vehicle>
    <vehicle id="71" depart="385.00" departLane="best" departPos="random" departSpeed="max" arrivalPos="75.18">
        <route edges="-E3 E1"/>
    </vehicle>
    <vehicle id="72" depart="388.00" departLane="best" departPos="random" departSpeed="max" arrivalPos="227.33">
        <route edges="-E1 E3"/>
    </vehicle>
    <vehicle id="73" depart="397.00" departLane="best" departPos="random" departSpeed="max" arrivalPos="215.15">
        <route edges="-E1 E3"/>
    </vehicle>
    <vehicle id="74" depart="408.00" departLane="best" departPos="random" departSpeed="max" arrivalPos="49.44">
        <route edges="-E2 E3"/>
    </vehicle>
    <vehicle id="75" depart="409.00" departLane="best" departPos="random" departSpeed="max" arrivalPos="294.37">
        <route edges="-E3 E1"/>
    </vehicle>
    <vehicle id="76" depart="410.00" departLane="best" departPos="random" departSpeed="max" arrivalPos="80.26">
        <route edges="-E4 E3"/>
    </vehicle>
    <vehicle id="79" depart="421.00" departLane="best" departPos="random" departSpeed="max" arrivalPos="277.29">
        <route edges="-E3 E2"/>
    </vehicle>
    <vehicle id="80" depart="428.00" departLane="best" departPos="random" departSpeed="max" arrivalPos="240.81">
        <route edges="-E4 E2"/>
    </vehicle>
    <vehicle id="81" depart="429.00" departLane="best" departPos="random" departSpeed="max" arrivalPos="97.64">
        <route edges="-E2 E1"/>
    </vehicle>
    <vehicle id="82" depart="434.00" departLane="best" departPos="random" departSpeed="max" arrivalPos="287.83">
        <route edges="-E1 E4"/>
    </vehicle>
    <vehicle id="83" depart="443.00" departLane="best" departPos="random" departSpeed="max" arrivalPos="122.47">
        <route edges="-E1 E3"/>
    </vehicle>
    <vehicle id="84" depart="445.00" departLane="best" departPos="random" departSpeed="max" arrivalPos="74.46">
        <route edges="-E1 E2"/>
    </vehicle>
    <vehicle id="85" depart="448.00" departLane="best" departPos="random" departSpeed="max" arrivalPos="56.95">
        <route edges="-E3 E1"/>
    </vehicle>
    <vehicle id="86" depart="451.00" departLane="best" departPos="random" departSpeed="max" arrivalPos="188.26">
        <route edges="-E2 E1"/>
    </vehicle>
    <vehicle id="87" depart="454.00" departLane="best" departPos="random" departSpeed="max" arrivalPos="61.98">
        <route edges="-E3 E4"/>
    </vehicle>
    <vehicle id="88" depart="457.00" departLane="best" departPos="random" departSpeed="max" arrivalPos="81.97">
        <route edges="-E2 E3"/>
    </vehicle>
    <vehicle id="89" depart="461.00" departLane="best" departPos="random" departSpeed="max" arrivalPos="205.06">
        <route edges="-E3 E2"/>
    </vehicle>
    <vehicle id="91" depart="468.00" departLane="best" departPos="random" departSpeed="max" arrivalPos="256.71">
        <route edges="-E3 E2"/>
    </vehicle>
    <vehicle id="92" depart="470.00" departLane="best" departPos="random" departSpeed="max" arrivalPos="114.98">
        <route edges="-E4 E3"/>
    </vehicle>
    <vehicle id="93" depart="472.00" departLane="best" departPos="random" departSpeed="max" arrivalPos="242.26">
        <route edges="-E2 E1"/>
    </vehicle>
    <vehicle id="94" depart="475.00" departLane="best" departPos="random" departSpeed="max" arrivalPos="163.59">
        <route edges="-E1 E3"/>
    </vehicle>
    <vehicle id="96" depart="497.00" departLane="best" departPos="random" departSpeed="max" arrivalPos="171.77">
        <route edges="-E1 E3"/>
    </vehicle>
    <vehicle id="97" depart="511.00" departLane="best" departPos="random" departSpeed="max" arrivalPos="107.05">
        <route edges="-E2 E3"/>
    </vehicle>
    <vehicle id="98" depart="516.00" departLane="best" departPos="random" departSpeed="max" arrivalPos="132.69">
        <route edges="-E3 E1"/>
    </vehicle>
    <vehicle id="100" depart="522.00" departLane="best" departPos="random" departSpeed="max" arrivalPos="147.69">
        <route edges="-E4 E3"/>
    </vehicle>
    <vehicle id="101" depart="522.00" departLane="best" departPos="random" departSpeed="max" arrivalPos="61.17">
        <route edges="-E3 E2"/>
    </vehicle>
    <vehicle id="102" depart="522.00" departLane="best" departPos="random" departSpeed="max" arrivalPos="179.45">
        <route edges="-E1 E2"/>
    </vehicle>
    <vehicle id="104" depart="545.00" departLane="best" departPos="random" departSpeed="max" arrivalPos="250.38">
        <route edges="-E4 E2"/>
    </vehicle>
    <vehicle id="105" depart="550.00" departLane="best" departPos="random" departSpeed="max" arrivalPos="296.28">
        <route edges="-E2 E3"/>
    </vehicle>
    <vehicle id="106" depart="551.00" departLane="best" departPos="random" departSpeed="max" arrivalPos="186.01">
        <route edges="-E2 E1"/>
    </vehicle>
    <vehicle id="107" depart="558.00" departLane="best" departPos="random" departSpeed="max" arrivalPos="1.06">
        <route edges="-E3 E2"/>
    </vehicle>
    <vehicle id="109" depart="576.00" departLane="best" departPos="random" departSpeed="max" arrivalPos="220.15">
        <route edges="-E4 E3"/>
    </vehicle>
    <vehicle id="110" depart="581.00" departLane="best" departPos="random" departSpeed="max" arrivalPos="147.81">
        <route edges="-E4 E3"/>
    </vehicle>
    <vehicle id="112" depart="594.00" departLane="best" departPos="random" departSpeed="max" arrivalPos="188.78">
        <route edges="-E3 E2"/>
    </vehicle>
    <vehicle id="113" depart="603.00" departLane="best" departPos="random" departSpeed="max" arrivalPos="234.74">
        <route edges="-E3 E4"/>
    </vehicle>
    <vehicle id="115" depart="607.00" departLane="best" departPos="random" departSpeed="max" arrivalPos="79.37">
        <route edges="-E3 E2"/>
    </vehicle>
    <vehicle id="116" depart="610.00" departLane="best" departPos="random" departSpeed="max" arrivalPos="163.27">
        <route edges="-E3 E4"/>
    </vehicle>
    <vehicle id="117" depart="611.00" departLane="best" departPos="random" departSpeed="max" arrivalPos="145.36">
        <route edges="-E1 E4"/>
    </vehicle>
    <vehicle id="118" depart="621.00" departLane="best" departPos="random" departSpeed="max" arrivalPos="153.08">
        <route edges="-E2 E1"/>
    </vehicle>
    <vehicle id="119" depart="627.00" departLane="best" departPos="random" departSpeed="max" arrivalPos="106.55">
        <route edges="-E3 E2"/>
    </vehicle>
    <vehicle id="120" depart="631.00" departLane="best" departPos="random" departSpeed="max" arrivalPos="152.15">
        <route edges="-E3 E1"/>
    </vehicle>
    <vehicle id="121" depart="635.00" departLane="best" departPos="random" departSpeed="max" arrivalPos="120.58">
        <route edges="-E4 E3"/>
    </vehicle>
    <vehicle id="123" depart="650.00" departLane="best" departPos="random" departSpeed="max" arrivalPos="80.72">
        <route edges="-E1 E4"/>
    </vehicle>
    <vehicle id="124" depart="657.00" departLane="best" departPos="random" departSpeed="max" arrivalPos="156.96">
        <route edges="-E1 E4"/>
    </vehicle>
    <vehicle id="125" depart="659.00" departLane="best" departPos="random" departSpeed="max" arrivalPos="221.02">
        <route edges="-E2 E3"/>
    </vehicle>
    <vehicle id="126" depart="666.00" departLane="best" departPos="random" departSpeed="max" arrivalPos="214.03">
        <route edges="-E1 E3"/>
    </vehicle>
    <vehicle id="127" depart="671.00" departLane="best" departPos="random" departSpeed="max" arrivalPos="182.90">
        <route edges="-E4 E2"/>
    </vehicle>
    <vehicle id="128" depart="678.00" departLane="best" departPos="random" departSpeed="max" arrivalPos="51.71">
        <route edges="-E1 E3"/>
    </vehicle>
    <vehicle id="130" depart="703.00" departLane="best" departPos="random" departSpeed="max" arrivalPos="212.01">
        <route edges="-E1 E4"/>
    </vehicle>
    <vehicle id="131" depart="704.00" departLane="best" departPos="random" departSpeed="max" arrivalPos="269.82">
        <route edges="-E4 E1"/>
    </vehicle>
    <vehicle id="132" depart="705.00" departLane="best" departPos="random" departSpeed="max" arrivalPos="129.53">
        <route edges="-E3 E2"/>
    </vehicle>
    <vehicle id="134" depart="708.00" departLane="best" departPos="random" departSpeed="max" arrivalPos="291.91">
        <route edges="-E3 E1"/>
    </vehicle>
    <vehicle id="135" depart="710.00" departLane="best" departPos="random" departSpeed="max" arrivalPos="218.47">
        <route edges="-E2 E4"/>
    </vehicle>
    <vehicle id="136" depart="723.00" departLane="best" departPos="random" departSpeed="max" arrivalPos="157.98">
        <route edges="-E3 E2"/>
    </vehicle>
    <vehicle id="138" depart="746.00" departLane="best" departPos="random" departSpeed="max" arrivalPos="72.15">
        <route edges="-E2 E4"/>
    </vehicle>
    <vehicle id="140" depart="758.00" departLane="best" departPos="random" departSpeed="max" arrivalPos="147.71">
        <route edges="-E1 E2"/>
    </vehicle>
    <vehicle id="142" depart="774.00" departLane="best" departPos="random" departSpeed="max" arrivalPos="64.97">
        <route edges="-E3 E4"/>
    </vehicle>
    <vehicle id="143" depart="777.00" departLane="best" departPos="random" departSpeed="max" arrivalPos="244.47">
        <route edges="-E1 E3"/>
    </vehicle>
    <vehicle id="144" depart="780.00" departLane="best" departPos="random" departSpeed="max" arrivalPos="102.73">
        <route edges="-E4 E3"/>
    </vehicle>
    <vehicle id="145" depart="785.00" departLane="best" departPos="random" departSpeed="max" arrivalPos="207.79">
        <route edges="-E4 E1"/>
    </vehicle>
    <vehicle id="146" depart="791.00" departLane="best" departPos="random" departSpeed="max" arrivalPos="148.51">
        <route edges="-E1 E2"/>
    </vehicle>
    <vehicle id="147" depart="798.00" departLane="best" departPos="random" departSpeed="max" arrivalPos="69.52">
        <route edges="-E2 E1"/>
    </vehicle>
    <vehicle id="148" depart="798.00" departLane="best" departPos="random" departSpeed="max" arrivalPos="173.98">
        <route edges="-E4 E2"/>
    </vehicle>
    <vehicle id="149" depart="805.00" departLane="best" departPos="random" departSpeed="max" arrivalPos="99.04">
        <route edges="-E1 E3"/>
    </vehicle>
    <vehicle id="150" depart="805.00" departLane="best" departPos="random" departSpeed="max" arrivalPos="298.32">
        <route edges="-E3 E4"/>
    </vehicle>
    <vehicle id="151" depart="806.00" departLane="best" departPos="random" departSpeed="max" arrivalPos="257.28">
        <route edges="-E1 E4"/>
    </vehicle>
    <vehicle id="153" depart="813.00" departLane="best" departPos="random" departSpeed="max" arrivalPos="264.01">
        <route edges="-E4 E2"/>
    </vehicle>
    <vehicle id="154" depart="823.00" departLane="best" departPos="random" departSpeed="max" arrivalPos="274.10">
        <route edges="-E4 E1"/>
    </vehicle>
    <vehicle id="156" depart="828.00" departLane="best" departPos="random" departSpeed="max" arrivalPos="38.99">
        <route edges="-E1 E2"/>
    </vehicle>
    <vehicle id="157" depart="846.00" departLane="best" departPos="random" departSpeed="max" arrivalPos="271.83">
        <route edges="-E2 E4"/>
    </vehicle>
    <vehicle id="159" depart="848.00" departLane="best" departPos="random" departSpeed="max" arrivalPos="35.23">
        <route edges="-E1 E2"/>
    </vehicle>
    <vehicle id="162" depart="862.00" departLane="best" departPos="random" departSpeed="max" arrivalPos="189.32">
        <route edges="-E3 E2"/>
    </vehicle>
    <vehicle id="163" depart="864.00" departLane="best" departPos="random" departSpeed="max" arrivalPos="72.93">
        <route edges="-E4 E3"/>
    </vehicle>
    <vehicle id="164" depart="864.00" departLane="best" departPos="random" departSpeed="max" arrivalPos="177.15">
        <route edges="-E1 E4"/>
    </vehicle>
    <vehicle id="165" depart="872.00" departLane="best" departPos="random" departSpeed="max" arrivalPos="168.08">
        <route edges="-E2 E3"/>
    </vehicle>
    <vehicle id="166" depart="873.00" departLane="best" departPos="random" departSpeed="max" arrivalPos="105.97">
        <route edges="-E3 E1"/>
    </vehicle>
    <vehicle id="167" depart="873.00" departLane="best" departPos="random" departSpeed="max" arrivalPos="264.03">
        <route edges="-E2 E1"/>
    </vehicle>
    <vehicle id="168" depart="884.00" departLane="best" departPos="random" departSpeed="max" arrivalPos="214.06">
        <route edges="-E2 E3"/>
    </vehicle>
    <vehicle id="170" depart="886.00" departLane="best" departPos="random" departSpeed="max" arrivalPos="45.30">
        <route edges="-E2 E4"/>
    </vehicle>
    <vehicle id="174" depart="912.00" departLane="best" departPos="random" departSpeed="max" arrivalPos="133.00">
        <route edges="-E1 E3"/>
    </vehicle>
    <vehicle id="175" depart="920.00" departLane="best" departPos="random" departSpeed="max" arrivalPos="212.29">
        <route edges="-E1 E2"/>
    </vehicle>
    <vehicle id="176" depart="923.00" departLane="best" departPos="random" departSpeed="max" arrivalPos="157.35">
        <route edges="-E4 E1"/>
    </vehicle>
    <vehicle id="177" depart="927.00" departLane="best" departPos="random" departSpeed="max" arrivalPos="25.74">
        <route edges="-E1 E4"/>
    </vehicle>
    <vehicle id="178" depart="931.00" departLane="best" departPos="random" departSpeed="max" arrivalPos="219.78">
        <route edges="-E1 E2"/>
    </vehicle>
    <vehicle id="179" depart="938.00" departLane="best" departPos="random" departSpeed="max" arrivalPos="238.37">
        <route edges="-E2 E1"/>
    </vehicle>
    <vehicle id="181" depart="941.00" departLane="best" departPos="random" departSpeed="max" arrivalPos="167.15">
        <route edges="-E2 E1"/>
    </vehicle>
    <vehicle id="183" depart="961.00" departLane="best" departPos="random" departSpeed="max" arrivalPos="31.41">
        <route edges="-E4 E3"/>
    </vehicle>
    <vehicle id="184" depart="967.00" departLane="best" departPos="random" departSpeed="max" arrivalPos="296.41">
        <route edges="-E3 E2"/>
    </vehicle>
    <vehicle id="185" depart="970.00" departLane="best" departPos="random" departSpeed="max" arrivalPos="210.39">
        <route edges="-E3 E4"/>
    </vehicle>
    <vehicle id="186" depart="983.00" departLane="best" departPos="random" departSpeed="max" arrivalPos="249.49">
        <route edges="-E3 E4"/>
    </vehicle>
    <vehicle id="187" depart="985.00" departLane="best" departPos="random" departSpeed="max" arrivalPos="111.11">
        <route edges="-E2 E1"/>
    </vehicle>
    <vehicle id="188" depart="993.00" departLane="best" departPos="random" departSpeed="max" arrivalPos="103.61">
        <route edges="-E3 E1"/>
    </vehicle>
    <vehicle id="189" depart="999.00" departLane="best" departPos="random" departSpeed="max" arrivalPos="244.48">
        <route edges="-E3 E1"/>
    </vehicle>
    <vehicle id="190" depart="1002.00" departLane="best" departPos="random" departSpeed="max" arrivalPos="89.50">
        <route edges="-E3 E2"/>
    </vehicle>
    <vehicle id="193" depart="1015.00" departLane="best" departPos="random" departSpeed="max" arrivalPos="98.27">
        <route edges="-E4 E2"/>
    </vehicle>
    <vehicle id="194" depart="1016.00" departLane="best" departPos="random" departSpeed="max" arrivalPos="143.91">
        <route edges="-E1 E4"/>
    </vehicle>
    <vehicle id="197" depart="1025.00" departLane="best" departPos="random" departSpeed="max" arrivalPos="157.11">
        <route edges="-E4 E1"/>
    </vehicle>
    <vehicle id="198" depart="1028.00" departLane="best" departPos="random" departSpeed="max" arrivalPos="235.18">
        <route edges="-E3 E4"/>
    </vehicle>
    <vehicle id="200" depart="1033.00" departLane="best" departPos="random" departSpeed="max" arrivalPos="120.77">
        <route edges="-E4 E3"/>
    </vehicle>
    <vehicle id="201" depart="1034.00" departLane="best" departPos="random" departSpeed="max" arrivalPos="159.64">
        <route edges="-E2 E4"/>
    </vehicle>
    <vehicle id="203" depart="1039.00" departLane="best" departPos="random" departSpeed="max" arrivalPos="55.38">
        <route edges="-E3 E4"/>
    </vehicle>
    <vehicle id="204" depart="1041.00" departLane="best" departPos="random" departSpeed="max" arrivalPos="15.03">
        <route edges="-E2 E3"/>
    </vehicle>
    <vehicle id="205" depart="1042.00" departLane="best" departPos="random" departSpeed="max" arrivalPos="79.72">
        <route edges="-E1 E3"/>
    </vehicle>
    <vehicle id="206" depart="1044.00" departLane="best" departPos="random" departSpeed="max" arrivalPos="189.64">
        <route edges="-E1 E2"/>
    </vehicle>
    <vehicle id="207" depart="1049.00" departLane="best" departPos="random" departSpeed="max" arrivalPos="21.84">
        <route edges="-E3 E1"/>
    </vehicle>
    <vehicle id="208" depart="1052.00" departLane="best" departPos="random" departSpeed="max" arrivalPos="52.01">
        <route edges="-E4 E3"/>
    </vehicle>
    <vehicle id="209" depart="1057.00" departLane="best" departPos="random" departSpeed="max" arrivalPos="110.43">
        <route edges="-E4 E1"/>
    </vehicle>
    <vehicle id="210" depart="1062.00" departLane="best" departPos="random" departSpeed="max" arrivalPos="85.13">
        <route edges="-E4 E3"/>
    </vehicle>
    <vehicle id="211" depart="1066.00" departLane="best" departPos="random" departSpeed="max" arrivalPos="259.65">
        <route edges="-E4 E3"/>
    </vehicle>
    <vehicle id="212" depart="1072.00" departLane="best" departPos="random" departSpeed="max" arrivalPos="202.68">
        <route edges="-E4 E2"/>
    </vehicle>
    <vehicle id="213" depart="1080.00" departLane="best" departPos="random" departSpeed="max" arrivalPos="239.45">
        <route edges="-E3 E4"/>
    </vehicle>
    <vehicle id="214" depart="1080.00" departLane="best" departPos="random" departSpeed="max" arrivalPos="299.45">
        <route edges="-E3 E4"/>
    </vehicle>
    <vehicle id="215" depart="1102.00" departLane="best" departPos="random" departSpeed="max" arrivalPos="224.03">
        <route edges="-E2 E1"/>
    </vehicle>
    <vehicle id="216" depart="1105.00" departLane="best" departPos="random" departSpeed="max" arrivalPos="146.12">
        <route edges="-E4 E3"/>
    </vehicle>
    <vehicle id="217" depart="1106.00" departLane="best" departPos="random" departSpeed="max" arrivalPos="238.87">
        <route edges="-E2 E4"/>
    </vehicle>
    <vehicle id="218" depart="1108.00" departLane="best" departPos="random" departSpeed="max" arrivalPos="255.34">
        <route edges="-E3 E1"/>
    </vehicle>
    <vehicle id="219" depart="1115.00" departLane="best" departPos="random" departSpeed="max" arrivalPos="89.81">
        <route edges="-E2 E1"/>
    </vehicle>
    <vehicle id="220" depart="1122.00" departLane="best" departPos="random" departSpeed="max" arrivalPos="36.01">
        <route edges="-E3 E1"/>
    </vehicle>
    <vehicle id="221" depart="1122.00" departLane="best" departPos="random" departSpeed="max" arrivalPos="224.06">
        <route edges="-E2 E4"/>
    </vehicle>
    <vehicle id="222" depart="1123.00" departLane="best" departPos="random" departSpeed="max" arrivalPos="171.59">
        <route edges="-E4 E3"/>
    </vehicle>
    <vehicle id="225" depart="1132.00" departLane="best" departPos="random" departSpeed="max" arrivalPos="90.57">
        <route edges="-E3 E2"/>
    </vehicle>
    <vehicle id="227" depart="1139.00" departLane="best" departPos="random" departSpeed="max" arrivalPos="191.00">
        <route edges="-E4 E1"/>
    </vehicle>
    <vehicle id="228" depart="1148.00" departLane="best" departPos="random" departSpeed="max" arrivalPos="169.77">
        <route edges="-E4 E3"/>
    </vehicle>
    <vehicle id="230" depart="1153.00" departLane="best" departPos="random" departSpeed="max" arrivalPos="269.62">
        <route edges="-E4 E3"/>
    </vehicle>
    <vehicle id="232" depart="1165.00" departLane="best" departPos="random" departSpeed="max" arrivalPos="111.79">
        <route edges="-E2 E4"/>
    </vehicle>
    <vehicle id="233" depart="1167.00" departLane="best" departPos="random" departSpeed="max" arrivalPos="100.96">
        <route edges="-E3 E2"/>
    </vehicle>
    <vehicle id="234" depart="1167.00" departLane="best" departPos="random" departSpeed="max" arrivalPos="106.35">
        <route edges="-E2 E1"/>
    </vehicle>
    <vehicle id="235" depart="1174.00" departLane="best" departPos="random" departSpeed="max" arrivalPos="51.62">
        <route edges="-E2 E1"/>
    </vehicle>
    <vehicle id="236" depart="1179.00" departLane="best" departPos="random" departSpeed="max" arrivalPos="176.87">
        <route edges="-E2 E4"/>
    </vehicle>
    <vehicle id="237" depart="1183.00" departLane="best" departPos="random" departSpeed="max" arrivalPos="77.38">
        <route edges="-E2 E4"/>
    </vehicle>
    <vehicle id="239" depart="1196.00" departLane="best" departPos="random" departSpeed="max" arrivalPos="145.74">
        <route edges="-E2 E4"/>
    </vehicle>
    <vehicle id="240" depart="1201.00" departLane="best" departPos="random" departSpeed="max" arrivalPos="197.87">
        <route edges="-E2 E4"/>
    </vehicle>