<?xml version="1.0" encoding="UTF-8"?>

<!-- generated on 2023-08-06 18:23:17 by Eclipse SUMO netedit Version 1.11.0
<configuration xmlns:xsi="http://www.w3.org/2001/XMLSchema-instance" xsi:noNamespaceSchemaLocation="http://sumo.dlr.de/xsd/netconvertConfiguration.xsd">

    <input>
        <sumo-net-file value="C:\Users\xs\Downloads\nets\3lane\3lane.net.xml"/>
    </input>

    <output>
        <output-file value="C:\Users\xsDownloads\nets\3lane\3lane.net.xml"/>
    </output>

    <processing>
        <geometry.min-radius.fix.railways value="false"/>
        <geometry.max-grade.fix value="false"/>
        <offset.disable-normalization value="true"/>
        <lefthand value="false"/>
    </processing>

    <junctions>
        <no-turnarounds value="true"/>
        <junctions.corner-detail value="5"/>
        <junctions.limit-turn-speed value="5.5"/>
        <rectangular-lane-cut value="false"/>
    </junctions>

    <pedestrian>
        <walkingareas value="false"/>
    </pedestrian>

    <report>
        <aggregate-warnings value="5"/>
    </report>

</configuration>
-->

<net version="1.9" junctionCornerDetail="5" limitTurnSpeed="5.50" xmlns:xsi="http://www.w3.org/2001/XMLSchema-instance" xsi:noNamespaceSchemaLocation="http://sumo.dlr.de/xsd/net_file.xsd">

    <location netOffset="0.00,0.00" convBoundary="0.00,0.00,600.00,600.00" origBoundary="0.00,0.00,1500.00,1500.00" projParameter="!"/>

    <edge id=":A0_0" function="internal">
        <lane id=":A0_0_0" index="0" speed="6.51" length="9.03" shape="292.00,313.60 291.65,311.15 290.60,309.40 288.85,308.35 286.40,308.00"/>
        <lane id=":A0_0_1" index="1" speed="7.33" length="11.73" shape="292.00,313.60 291.65,309.75 290.60,307.00 288.85,305.35 286.40,304.80"/>
        <lane id=":A0_0_2" index="2" speed="8.10" length="14.57" shape="292.00,313.60 291.65,308.35 290.60,304.60 288.85,302.35 286.40,301.60"/>
    </edge>
    <edge id=":A0_3" function="internal">
        <lane id=":A0_3_0" index="0" speed="13.89" length="27.37" shape="295.20,313.60 294.70,305.50 293.60,300.00 292.50,294.50 292.00,286.40"/>
        <lane id=":A0_3_1" index="1" speed="13.89" length="27.37" shape="295.20,313.60 295.20,286.40"/>
        <lane id=":A0_3_2" index="2" speed="13.89" length="27.37" shape="295.20,313.60 295.70,305.50 296.80,300.00 297.90,294.50 298.40,286.40"/>
    </edge>
    <edge id=":A0_6" function="internal">
        <lane id=":A0_6_0" index="0" speed="11.39" length="29.85" shape="298.40,313.60 299.35,304.15 302.20,297.40 306.95,293.35 313.60,292.00"/>
        <lane id=":A0_6_1" index="1" speed="10.88" length="27.14" shape="298.40,313.60 299.35,305.55 302.20,299.80 306.95,296.35 313.60,295.20"/>
        <lane id=":A0_6_2" index="2" speed="10.36" length="24.51" shape="298.40,313.60 299.35,306.95 302.20,302.20 306.95,299.35 313.60,298.40"/>
    </edge>
    <edge id=":A0_9" function="internal">
        <lane id=":A0_9_0" index="0" speed="6.51" length="9.03" shape="313.60,308.00 311.15,308.35 309.40,309.40 308.35,311.15 308.00,313.60"/>
        <lane id=":A0_9_1" index="1" speed="7.33" length="11.73" shape="313.60,308.00 309.75,308.35 307.00,309.40 305.35,311.15 304.80,313.60"/>
        <lane id=":A0_9_2" index="2" speed="8.10" length="14.57" shape="313.60,308.00 308.35,308.35 304.60,309.40 302.35,311.15 301.60,313.60"/>
    </edge>
    <edge id=":A0_12" function="internal">
        <lane id=":A0_12_0" index="0" speed="13.89" length="27.37" shape="313.60,304.80 305.50,305.30 300.00,306.40 294.50,307.50 286.40,308.00"/>
        <lane id=":A0_12_1" index="1" speed="13.89" length="27.37" shape="313.60,304.80 286.40,304.80"/>
        <lane id=":A0_12_2" index="2" speed="13.89" length="27.37" shape="313.60,304.80 305.50,304.30 300.00,303.20 294.50,302.10 286.40,301.60"/>
    </edge>
    <edge id=":A0_15" function="internal">
        <lane id=":A0_15_0" index="0" speed="11.39" length="29.85" shape="313.60,301.60 304.15,300.65 297.40,297.80 293.35,293.05 292.00,286.40"/>
        <lane id=":A0_15_1" index="1" speed="10.88" length="27.14" shape="313.60,301.60 305.55,300.65 299.80,297.80 296.35,293.05 295.20,286.40"/>
        <lane id=":A0_15_2" index="2" speed="10.36" length="24.51" shape="313.60,301.60 306.95,300.65 302.20,297.80 299.35,293.05 298.40,286.40"/>
    </edge>
    <edge id=":A0_18" function="internal">
        <lane id=":A0_18_0" index="0" speed="6.51" length="9.03" shape="308.00,286.40 308.35,288.85 309.40,290.60 311.15,291.65 313.60,292.00"/>
        <lane id=":A0_18_1" index="1" speed="7.33" length="11.73" shape="308.00,286.40 308.35,290.25 309.40,293.00 311.15,294.65 313.60,295.20"/>
        <lane id=":A0_18_2" index="2" speed="8.10" length="14.57" shape="308.00,286.40 308.35,291.65 309.40,295.40 311.15,297.65 313.60,298.40"/>
    </edge>
    <edge id=":A0_21" function="internal">
        <lane id=":A0_21_0" index="0" speed="13.89" length="27.37" shape="304.80,286.40 305.30,294.50 306.40,300.00 307.50,305.50 308.00,313.60"/>
        <lane id=":A0_21_1" index="1" speed="13.89" length="27.37" shape="304.80,286.40 304.80,313.60"/>
        <lane id=":A0_21_2" index="2" speed="13.89" length="27.37" shape="304.80,286.40 304.30,294.50 303.20,300.00 302.10,305.50 301.60,313.60"/>
    </edge>
    <edge id=":A0_24" function="internal">
        <lane id=":A0_24_0" index="0" speed="11.39" length="29.85" shape="301.60,286.40 300.65,295.85 297.80,302.60 293.05,306.65 286.40,308.00"/>
        <lane id=":A0_24_1" index="1" speed="10.88" length="27.14" shape="301.60,286.40 300.65,294.45 297.80,300.20 293.05,303.65 286.40,304.80"/>
        <lane id=":A0_24_2" index="2" speed="10.36" length="24.51" shape="301.60,286.40 300.65,293.05 297.80,297.80 293.05,300.65 286.40,301.60"/>
    </edge>
    <edge id=":A0_27" function="internal">
        <lane id=":A0_27_0" index="0" speed="6.51" length="9.03" shape="286.40,292.00 288.85,291.65 290.60,290.60 291.65,288.85 292.00,286.40"/>
        <lane id=":A0_27_1" index="1" speed="7.33" length="11.73" shape="286.40,292.00 290.25,291.65 293.00,290.60 294.65,288.85 295.20,286.40"/>
        <lane id=":A0_27_2" index="2" speed="8.10" length="14.57" shape="286.40,292.00 291.65,291.65 295.40,290.60 297.65,288.85 298.40,286.40"/>
    </edge>
    <edge id=":A0_30" function="internal">
        <lane id=":A0_30_0" index="0" speed="13.89" length="27.37" shape="286.40,295.20 294.50,294.70 300.00,293.60 305.50,292.50 313.60,292.00"/>
        <lane id=":A0_30_1" index="1" speed="13.89" length="27.37" shape="286.40,295.20 313.60,295.20"/>
        <lane id=":A0_30_2" index="2" speed="13.89" length="27.37" shape="286.40,295.20 294.50,295.70 300.00,296.80 305.50,297.90 313.60,298.40"/>
    </edge>
    <edge id=":A0_33" function="internal">
        <lane id=":A0_33_0" index="0" speed="11.39" length="29.85" shape="286.40,298.40 295.85,299.35 302.60,302.20 306.65,306.95 308.00,313.60"/>
        <lane id=":A0_33_1" index="1" speed="10.88" length="27.14" shape="286.40,298.40 294.45,299.35 300.20,302.20 303.65,306.95 304.80,313.60"/>
        <lane id=":A0_33_2" index="2" speed="10.36" length="24.51" shape="286.40,298.40 293.05,299.35 297.80,302.20 300.65,306.95 301.60,313.60"/>
    </edge>

    <edge id="A0A1" from="A0" to="A1" priority="-1">
        <lane id="A0A1_0" index="0" speed="13.89" length="286.40" shape="308.00,313.60 308.00,600.00"/>
        <lane id="A0A1_1" index="1" speed="13.89" length="286.40" shape="304.80,313.60 304.80,600.00"/>
        <lane id="A0A1_2" index="2" speed="13.89" length="286.40" shape="301.60,313.60 301.60,600.00"/>
    </edge>
    <edge id="A0B0" from="A0" to="B0" priority="-1">
        <lane id="A0B0_0" index="0" speed="13.89" length="286.40" shape="313.60,292.00 600.00,292.00"/>
        <lane id="A0B0_1" index="1" speed="13.89" length="286.40" shape="313.60,295.20 600.00,295.20"/>
        <lane id="A0B0_2" index="2" speed="13.89" length="286.40" shape="313.60,298.40 600.00,298.40"/>
    </edge>
    <edge id="A0bottom0" from="A0" to="bottom0" priority="-1">
        <lane id="A0bottom0_0" index="0" speed="13.89" length="286.40" shape="292.00,286.40 292.00,0.00"/>
        <lane id="A0bottom0_1" index="1" speed="13.89" length="286.40" shape="295.20,286.40 295.20,0.00"/>
        <lane id="A0bottom0_2" index="2" speed="13.89" length="286.40" shape="298.40,286.40 298.40,0.00"/>
    </edge>
    <edge id="A0left0" from="A0" to="left0" priority="-1">
        <lane id="A0left0_0" index="0" speed="13.89" length="286.40" shape="286.40,308.00 0.00,308.00"/>
        <lane id="A0left0_1" index="1" speed="13.89" length="286.40" shape="286.40,304.80 0.00,304.80"/>
        <lane id="A0left0_2" index="2" speed="13.89" length="286.40" shape="286.40,301.60 0.00,301.60"/>
    </edge>
    <edge id="A1A0" from="A1" to="A0" priority="-1">
        <lane id="A1A0_0" index="0" speed="13.89" length="286.40" shape="292.00,600.00 292.00,313.60"/>
        <lane id="A1A0_1" index="1" speed="13.89" length="286.40" shape="295.20,600.00 295.20,313.60"/>
        <lane id="A1A0_2" index="2" speed="13.89" length="286.40" shape="298.40,600.00 298.40,313.60"/>
    </edge>
    <edge id="B0A0" from="B0" to="A0" priority="-1">
        <lane id="B0A0_0" index="0" speed="13.89" length="286.40" shape="600.00,308.00 313.60,308.00"/>
        <lane id="B0A0_1" index="1" speed="13.89" length="286.40" shape="600.00,304.80 313.60,304.80"/>
        <lane id="B0A0_2" index="2" speed="13.89" length="286.40" shape="600.00,301.60 313.60,301.60"/>
    </edge>
    <edge id="bottom0A0" from="bottom0" to="A0" priority="-1">
        <lane id="bottom0A0_0" index="0" speed="13.89" length="286.40" shape="308.00,0.00 308.00,286.40"/>
        <lane id="bottom0A0_1" index="1" speed="13.89" length="286.40" shape="304.80,0.00 304.80,286.40"/>
        <lane id="bottom0A0_2" index="2" speed="13.89" length="286.40" shape="301.60,0.00 301.60,286.40"/>
    </edge>
    <edge id="left0A0" from="left0" to="A0" priority="-1">
        <lane id="left0A0_0" index="0" speed="13.89" length="286.40" shape="0.00,292.00 286.40,292.00"/>
        <lane id="left0A0_1" index="1" speed="13.89" length="286.40" shape="0.00,295.20 286.40,295.20"/>
        <lane id="left0A0_2" index="2" speed="13.89" length="286.40" shape="0.00,298.40 286.40,298.40"/>
    </edge>

    <tlLogic id="A0" type="static" programID="0" offset="0">
        <phase duration="10" state="GGGGGGrrrsssrrrrrrGGGGGGrrrsssrrrrrr"/>
        <phase duration="3"  state="yyyyyyrrrsssrrrrrryyyyyyrrrsssrrrrrr"/>
        <phase duration="10" state="sssrrrGGGsssrrrrrrsssrrrGGGsssrrrrrr"/>
        <phase duration="3"  state="sssrrrGGGsssrrrrrrsssrrryyysssrrrrrr"/>
        <phase duration="10" state="GGGGGGGGGsssrrrrrrsssrrrrrrsssrrrrrr"/>
        <phase duration="3"  state="yyyyyyyyysssrrrrrrsssrrrrrrsssrrrrrr"/>
        <phase duration="10" state="sssrrrrrrsssrrrrrrGGGGGGGGGsssrrrrrr"/>
        <phase duration="3"  state="sssrrrrrrsssrrrrrryyyyyyyyysssrrrrrr"/>
        <phase duration="10" state="sssrrrrrrGGGGGGrrrsssrrrrrrGGGGGGrrr"/>
        <phase duration="3"  state="sssrrrrrryyyyyyrrrsssrrrrrryyyyyyrrr"/>
        <phase duration="10" state="sssrrrrrrsssrrrGGGsssrrrrrrsssrrrGGG"/>
        <phase duration="3"  state="sssrrrrrrsssrrryyysssrrrrrrsssrrrGGG"/>
        <phase duration="10" state="sssrrrrrrsssrrrrrrsssrrrrrrGGGGGGGGG"/>
        <phase duration="3"  state="sssrrrrrrsssrrrrrrsssrrrrrryyyyyyyyy"/>
        <phase duration="10" state="sssrrrrrrGGGGGGGGGsssrrrrrrsssrrrrrr"/>
        <phase duration="3"  state="sssrrrrrryyyyyyyyysssrrrrrrsssrrrrrr"/>
    </tlLogic>

    <junction id="A0" type="traffic_light_right_on_red" x="300.00" y="300.00" incLanes="A1A0_0 A1A0_1 A1A0_2 B0A0_0 B0A0_1 B0A0_2 bottom0A0_0 bottom0A0_1 bottom0A0_2 left0A0_0 left0A0_1 left0A0_2" intLanes=":A0_0_0 :A0_0_1 :A0_0_2 :A0_3_0 :A0_3_1 :A0_3_2 :A0_6_0 :A0_6_1 :A0_6_2 :A0_9_0 :A0_9_1 :A0_9_2 :A0_12_0 :A0_12_1 :A0_12_2 :A0_15_0 :A0_15_1 :A0_15_2 :A0_18_0 :A0_18_1 :A0_18_2 :A0_21_0 :A0_21_1 :A0_21_2 :A0_24_0 :A0_24_1 :A0_24_2 :A0_27_0 :A0_27_1 :A0_27_2 :A0_30_0 :A0_30_1 :A0_30_2 :A0_33_0 :A0_33_1 :A0_33_2" shape="290.40,313.60 309.60,313.60 310.04,311.38 310.60,310.60 311.38,310.04 312.38,309.71 313.60,309.60 313.60,290.40 311.38,289.96 310.60,289.40 310.04,288.62 309.71,287.62 309.60,286.40 290.40,286.40 289.96,288.62 289.40,289.40 288.62,289.96 287.62,290.29 286.40,290.40 286.40,309.60 288.62,310.04 289.40,310.60 289.96,311.38 290.29,312.38">
        <request index="0"  response="000000000111000000000111000000000000" foes="000000000111000000000111000000000000" cont="0"/>
        <request index="1"  response="000000000111000000000111000000000000" foes="000000000111000000000111000000000000" cont="0"/>
        <request index="2"  response="000000000111000000000111000000000000" foes="000000000111000000000111000000000000" cont="0"/>
        <request index="3"  response="000000000000000000000000000000000000" foes="111111111111000000111111000000000000" cont="0"/>
        <request index="4"  response="000000000000000000000000000000000000" foes="111111111111000000111111000000000000" cont="0"/>
        <request index="5"  response="000000000000000000000000000000000000" foes="111111111111000000111111000000000000" cont="0"/>
        <request index="6"  response="000000000000111111000000000000000000" foes="111111000000111111111111000000000000" cont="0"/>
        <request index="7"  response="000000000000111111000000000000000000" foes="111111000000111111111111000000000000" cont="0"/>
        <request index="8"  response="000000000000111111000000000000000000" foes="111111000000111111111111000000000000" cont="0"/>
        <request index="9"  response="111000000000111000000000000000000000" foes="111000000000111000000000000000000000" cont="0"/>
        <request index="10" response="111000000000111000000000000000000000" foes="111000000000111000000000000000000000" cont="0"/>
        <request index="11" response="111000000000111000000000000000000000" foes="111000000000111000000000000000000000" cont="0"/>
        <request index="12" response="000000000111111000000000000111111111" foes="111000000111111000000000000111111111" cont="0"/>
        <request index="13" response="000000000111111000000000000111111111" foes="111000000111111000000000000111111111" cont="0"/>
        <request index="14" response="000000000111111000000000000111111111" foes="111000000111111000000000000111111111" cont="0"/>
        <request index="15" response="000111111111111000000000000111111000" foes="000111111111111000000000000111111000" cont="0"/>
        <request index="16" response="000111111111111000000000000111111000" foes="000111111111111000000000000111111000" cont="0"/>
        <request index="17" response="000111111111111000000000000111111000" foes="000111111111111000000000000111111000" cont="0"/>
        <request index="18" response="000111000000000000000000000111000000" foes="000111000000000000000000000111000000" cont="0"/>
        <request index="19" response="000111000000000000000000000111000000" foes="000111000000000000000000000111000000" cont="0"/>
        <request index="20" response="000111000000000000000000000111000000" foes="000111000000000000000000000111000000" cont="0"/>
        <request index="21" response="000000000000000000000000000000000000" foes="111111000000000000111111111111000000" cont="0"/>
        <request index="22" response="000000000000000000000000000000000000" foes="111111000000000000111111111111000000" cont="0"/>
        <request index="23" response="000000000000000000000000000000000000" foes="111111000000000000111111111111000000" cont="0"/>
        <request index="24" response="000000000000000000000000000000111111" foes="111111000000000000111111000000111111" cont="0"/>
        <request index="25" response="000000000000000000000000000000111111" foes="111111000000000000111111000000111111" cont="0"/>
        <request index="26" response="000000000000000000000000000000111111" foes="111111000000000000111111000000111111" cont="0"/>
        <request index="27" response="000000000000000000111000000000111000" foes="000000000000000000111000000000111000" cont="0"/>
        <request index="28" response="000000000000000000111000000000111000" foes="000000000000000000111000000000111000" cont="0"/>
        <request index="29" response="000000000000000000111000000000111000" foes="000000000000000000111000000000111000" cont="0"/>
        <request index="30" response="000000000111111111000000000111111000" foes="000000000111111111111000000111111000" cont="0"/>
        <request index="31" response="000000000111111111000000000111111000" foes="000000000111111111111000000111111000" cont="0"/>
        <request index="32" response="000000000111111111000000000111111000" foes="000000000111111111111000000111111000" cont="0"/>
        <request index="33" response="000000000111111000000111111111111000" foes="000000000111111000000111111111111000" cont="0"/>
        <request index="34" response="000000000111111000000111111111111000" foes="000000000111111000000111111111111000" cont="0"/>
        <request index="35" response="000000000111111000000111111111111000" foes="000000000111111000000111111111111000" cont="0"/>
    </junction>
    <junction id="A1" type="dead_end" x="300.00" y="600.00" incLanes="A0A1_0 A0A1_1 A0A1_2" intLanes="" shape="300.00,600.00 309.60,600.00 300.00,600.00"/>
    <junction id="B0" type="dead_end" x="600.00" y="300.00" incLanes="A0B0_0 A0B0_1 A0B0_2" intLanes="" shape="600.00,300.00 600.00,290.40 600.00,300.00"/>
    <junction id="bottom0" type="dead_end" x="300.00" y="0.00" incLanes="A0bottom0_0 A0bottom0_1 A0bottom0_2" intLanes="" shape="300.00,0.00 290.40,0.00 300.00,0.00" fringe="outer"/>
    <junction id="left0" type="dead_end" x="0.00" y="300.00" incLanes="A0left0_0 A0left0_1 A0left0_2" intLanes="" shape="0.00,300.00 0.00,309.60 0.00,300.00" fringe="outer"/>

    <connection from="A1A0" to="A0left0" fromLane="0" toLane="0" via=":A0_0_0" tl="A0" linkIndex="0" dir="r" state="O"/>
    <connection from="A1A0" to="A0left0" fromLane="0" toLane="1" via=":A0_0_1" tl="A0" linkIndex="1" dir="r" state="O"/>
    <connection from="A1A0" to="A0left0" fromLane="0" toLane="2" via=":A0_0_2" tl="A0" linkIndex="2" dir="r" state="O"/>
    <connection from="A1A0" to="A0bottom0" fromLane="1" toLane="0" via=":A0_3_0" tl="A0" linkIndex="3" dir="s" state="O"/>
    <connection from="A1A0" to="A0bottom0" fromLane="1" toLane="1" via=":A0_3_1" tl="A0" linkIndex="4" dir="s" state="O"/>
    <connection from="A1A0" to="A0bottom0" fromLane="1" toLane="2" via=":A0_3_2" tl="A0" linkIndex="5" dir="s" state="O"/>
    <connection from="A1A0" to="A0B0" fromLane="2" toLane="0" via=":A0_6_0" tl="A0" linkIndex="6" dir="l" state="o"/>
    <connection from="A1A0" to="A0B0" fromLane="2" toLane="1" via=":A0_6_1" tl="A0" linkIndex="7" dir="l" state="o"/>
    <connection from="A1A0" to="A0B0" fromLane="2" toLane="2" via=":A0_6_2" tl="A0" linkIndex="8" dir="l" state="o"/>
    <connection from="B0A0" to="A0A1" fromLane="0" toLane="0" via=":A0_9_0" tl="A0" linkIndex="9" dir="r" state="o"/>
    <connection from="B0A0" to="A0A1" fromLane="0" toLane="1" via=":A0_9_1" tl="A0" linkIndex="10" dir="r" state="o"/>
    <connection from="B0A0" to="A0A1" fromLane="0" toLane="2" via=":A0_9_2" tl="A0" linkIndex="11" dir="r" state="o"/>
    <connection from="B0A0" to="A0left0" fromLane="1" toLane="0" via=":A0_12_0" tl="A0" linkIndex="12" dir="s" state="o"/>
    <connection from="B0A0" to="A0left0" fromLane="1" toLane="1" via=":A0_12_1" tl="A0" linkIndex="13" dir="s" state="o"/>
    <connection from="B0A0" to="A0left0" fromLane="1" toLane="2" via=":A0_12_2" tl="A0" linkIndex="14" dir="s" state="o"/>
    <connection from="B0A0" to="A0bottom0" fromLane="2" toLane="0" via=":A0_15_0" tl="A0" linkIndex="15" dir="l" state="o"/>
    <connection from="B0A0" to="A0bottom0" fromLane="2" toLane="1" via=":A0_15_1" tl="A0" linkIndex="16" dir="l" state="o"/>
    <connection from="B0A0" to="A0bottom0" fromLane="2" toLane="2" via=":A0_15_2" tl="A0" linkIndex="17" dir="l" state="o"/>
    <connection from="bottom0A0" to="A0B0" fromLane="0" toLane="0" via=":A0_18_0" tl="A0" linkIndex="18" dir="r" state="O"/>
    <connection from="bottom0A0" to="A0B0" fromLane="0" toLane="1" via=":A0_18_1" tl="A0" linkIndex="19" dir="r" state="O"/>
    <connection from="bottom0A0" to="A0B0" fromLane="0" toLane="2" via=":A0_18_2" tl="A0" linkIndex="20" dir="r" state="O"/>
    <connection from="bottom0A0" to="A0A1" fromLane="1" toLane="0" via=":A0_21_0" tl="A0" linkIndex="21" dir="s" state="O"/>
    <connection from="bottom0A0" to="A0A1" fromLane="1" toLane="1" via=":A0_21_1" tl="A0" linkIndex="22" dir="s" state="O"/>
    <connection from="bottom0A0" to="A0A1" fromLane="1" toLane="2" via=":A0_21_2" tl="A0" linkIndex="23" dir="s" state="O"/>
    <connection from="bottom0A0" to="A0left0" fromLane="2" toLane="0" via=":A0_24_0" tl="A0" linkIndex="24" dir="l" state="o"/>
    <connection from="bottom0A0" to="A0left0" fromLane="2" toLane="1" via=":A0_24_1" tl="A0" linkIndex="25" dir="l" state="o"/>
    <connection from="bottom0A0" to="A0left0" fromLane="2" toLane="2" via=":A0_24_2" tl="A0" linkIndex="26" dir="l" state="o"/>
    <connection from="left0A0" to="A0bottom0" fromLane="0" toLane="0" via=":A0_27_0" tl="A0" linkIndex="27" dir="r" state="o"/>
    <connection from="left0A0" to="A0bottom0" fromLane="0" toLane="1" via=":A0_27_1" tl="A0" linkIndex="28" dir="r" state="o"/>
    <connection from="left0A0" to="A0bottom0" fromLane="0" toLane="2" via=":A0_27_2" tl="A0" linkIndex="29" dir="r" state="o"/>
    <connection from="left0A0" to="A0B0" fromLane="1" toLane="0" via=":A0_30_0" tl="A0" linkIndex="30" dir="s" state="o"/>
    <connection from="left0A0" to="A0B0" fromLane="1" toLane="1" via=":A0_30_1" tl="A0" linkIndex="31" dir="s" state="o"/>
    <connection from="left0A0" to="A0B0" fromLane="1" toLane="2" via=":A0_30_2" tl="A0" linkIndex="32" dir="s" state="o"/>
    <connection from="left0A0" to="A0A1" fromLane="2" toLane="0" via=":A0_33_0" tl="A0" linkIndex="33" dir="l" state="o"/>
    <connection from="left0A0" to="A0A1" fromLane="2" toLane="1" via=":A0_33_1" tl="A0" linkIndex="34" dir="l" state="o"/>
    <connection from="left0A0" to="A0A1" fromLane="2" toLane="2" via=":A0_33_2" tl="A0" linkIndex="35" dir="l" state="o"/>

    <connection from=":A0_0" to="A0left0" fromLane="0" toLane="0" dir="r" state="M"/>
    <connection from=":A0_0" to="A0left0" fromLane="1" toLane="1" dir="r" state="M"/>
    <connection from=":A0_0" to="A0left0" fromLane="2" toLane="2" dir="r" state="M"/>
    <connection from=":A0_3" to="A0bottom0" fromLane="0" toLane="0" dir="s" state="M"/>
    <connection from=":A0_3" to="A0bottom0" fromLane="1" toLane="1" dir="s" state="M"/>
    <connection from=":A0_3" to="A0bottom0" fromLane="2" toLane="2" dir="s" state="M"/>
    <connection from=":A0_6" to="A0B0" fromLane="0" toLane="0" dir="l" state="M"/>
    <connection from=":A0_6" to="A0B0" fromLane="1" toLane="1" dir="l" state="M"/>
    <connection from=":A0_6" to="A0B0" fromLane="2" toLane="2" dir="l" state="M"/>
    <connection from=":A0_9" to="A0A1" fromLane="0" toLane="0" dir="r" state="M"/>
    <connection from=":A0_9" to="A0A1" fromLane="1" toLane="1" dir="r" state="M"/>
    <connection from=":A0_9" to="A0A1" fromLane="2" toLane="2" dir="r" state="M"/>
    <connection from=":A0_12" to="A0left0" fromLane="0" toLane="0" dir="s" state="M"/>
    <connection from=":A0_12" to="A0left0" fromLane="1" toLane="1" dir="s" state="M"/>
    <connection from=":A0_12" to="A0left0" fromLane="2" toLane="2" dir="s" state="M"/>
    <connection from=":A0_15" to="A0bottom0" fromLane="0" toLane="0" dir="l" state="M"/>
    <connection from=":A0_15" to="A0bottom0" fromLane="1" toLane="1" dir="l" state="M"/>
    <connection from=":A0_15" to="A0bottom0" fromLane="2" toLane="2" dir="l" state="M"/>
    <connection from=":A0_18" to="A0B0" fromLane="0" toLane="0" dir="r" state="M"/>
    <connection from=":A0_18" to="A0B0" fromLane="1" toLane="1" dir="r" state="M"/>
    <connection from=":A0_18" to="A0B0" fromLane="2" toLane="2" dir="r" state="M"/>
    <connection from=":A0_21" to="A0A1" fromLane="0" toLane="0" dir="s" state="M"/>
    <connection from=":A0_21" to="A0A1" fromLane="1" toLane="1" dir="s" state="M"/>
    <connection from=":A0_21" to="A0A1" fromLane="2" toLane="2" dir="s" state="M"/>
    <connection from=":A0_24" to="A0left0" fromLane="0" toLane="0" dir="l" state="M"/>
    <connection from=":A0_24" to="A0left0" fromLane="1" toLane="1" dir="l" state="M"/>
    <connection from=":A0_24" to="A0left0" fromLane="2" toLane="2" dir="l" state="M"/>
    <connection from=":A0_27" to="A0bottom0" fromLane="0" toLane="0" dir="r" state="M"/>
    <connection from=":A0_27" to="A0bottom0" fromLane="1" toLane="1" dir="r" state="M"/>
    <connection from=":A0_27" to="A0bottom0" fromLane="2" toLane="2" dir="r" state="M"/>
    <connection from=":A0_30" to="A0B0" fromLane="0" toLane="0" dir="s" state="M"/>
    <connection from=":A0_30" to="A0B0" fromLane="1" toLane="1" dir="s" state="M"/>
    <connection from=":A0_30" to="A0B0" fromLane="2" toLane="2" dir="s" state="M"/>
    <connection from=":A0_33" to="A0A1" fromLane="0" toLane="0" dir="l" state="M"/>
    <connection from=":A0_33" to="A0A1" fromLane="1" toLane="1" dir="l" state="M"/>
    <connection from=":A0_33" to="A0A1" fromLane="2" toLane="2" dir="l" state="M"/>

</net>
