<?xml version="1.0" encoding="UTF-8"?>

<!-- generated on 2023-08-06 23:20:26.896851 by randomTrips.py UNKNOWN
<configuration>
    <net-file value="3lane.net.xml"/>
    <period value="4.0 2.0 1.0"/>
    <random-arrivalpos value="True"/>
    <random-depart value="True"/>
    <route-file value="3lane.rou.xml"/>
    <seed value="1"/>
    <trip-attributes value="departLane=&quot;best&quot; departSpeed=&quot;max&quot; departPos=&quot;random&quot;"/>
</configuration>
-->

<!-- generated on Sun Aug  6 23:20:26 2023 by Eclipse SUMO duarouter Version 1.4.0
<configuration xmlns:xsi="http://www.w3.org/2001/XMLSchema-instance" xsi:noNamespaceSchemaLocation="http://sumo.dlr.de/xsd/duarouterConfiguration.xsd">

    <input>
        <net-file value="3lane.net.xml"/>
        <route-files value="trips.trips.xml"/>
    </input>

    <output>
        <output-file value="3lane.rou.xml"/>
        <alternatives-output value="NUL"/>
    </output>

    <time>
        <begin value="0.0"/>
        <end value="3600.0"/>
    </time>

    <report>
        <no-warnings value="true"/>
        <ignore-errors value="true"/>
        <no-step-log value="true"/>
    </report>

</configuration>
-->

<routes xmlns:xsi="http://www.w3.org/2001/XMLSchema-instance" xsi:noNamespaceSchemaLocation="http://sumo.dlr.de/xsd/routes_file.xsd">
    <vehicle id="1" depart="4.00" departLane="best" departPos="random" departSpeed="max" arrivalPos="32.97">
        <route edges="bottom0A0 A0A1"/>
    </vehicle>
    <vehicle id="2" depart="11.00" departLane="best" departPos="random" departSpeed="max" arrivalPos="68.63">
        <route edges="left0A0 A0A1"/>
    </vehicle>
    <vehicle id="3" depart="17.00" departLane="best" departPos="random" departSpeed="max" arrivalPos="33.10">
        <route edges="left0A0 A0B0"/>
    </vehicle>
    <vehicle id="5" depart="25.00" departLane="best" departPos="random" departSpeed="max" arrivalPos="108.34">
        <route edges="A1A0 A0left0"/>
    </vehicle>
    <vehicle id="8" depart="35.00" departLane="best" departPos="random" departSpeed="max" arrivalPos="3.01">
        <route edges="bottom0A0 A0A1"/>
    </vehicle>
    <vehicle id="9" depart="36.00" departLane="best" departPos="random" departSpeed="max" arrivalPos="170.86">
        <route edges="left0A0 A0B0"/>
    </vehicle>
    <vehicle id="13" depart="45.00" departLane="best" departPos="random" departSpeed="max" arrivalPos="197.10">
        <route edges="left0A0 A0bottom0"/>
    </vehicle>
    <vehicle id="14" depart="48.00" departLane="best" departPos="random" departSpeed="max" arrivalPos="155.11">
        <route edges="bottom0A0 A0B0"/>
    </vehicle>
    <vehicle id="15" depart="52.00" departLane="best" departPos="random" departSpeed="max" arrivalPos="23.30">
        <route edges="B0A0 A0A1"/>
    </vehicle>
    <vehicle id="16" depart="57.00" departLane="best" departPos="random" departSpeed="max" arrivalPos="128.28">
        <route edges="B0A0 A0left0"/>
    </vehicle>
    <vehicle id="19" depart="60.00" departLane="best" departPos="random" departSpeed="max" arrivalPos="255.90">
        <route edges="B0A0 A0left0"/>
    </vehicle>
    <vehicle id="23" depart="70.00" departLane="best" departPos="random" departSpeed="max" arrivalPos="21.52">
        <route edges="bottom0A0 A0A1"/>
    </vehicle>
    <vehicle id="24" depart="72.00" departLane="best" departPos="random" departSpeed="max" arrivalPos="226.88">
        <route edges="bottom0A0 A0B0"/>
    </vehicle>
    <vehicle id="25" depart="76.00" departLane="best" departPos="random" departSpeed="max" arrivalPos="44.16">
        <route edges="B0A0 A0left0"/>
    </vehicle>
    <vehicle id="26" depart="77.00" departLane="best" departPos="random" departSpeed="max" arrivalPos="22.08">
        <route edges="bottom0A0 A0left0"/>
    </vehicle>
    <vehicle id="27" depart="80.00" departLane="best" departPos="random" departSpeed="max" arrivalPos="222.31">
        <route edges="left0A0 A0A1"/>
    </vehicle>
    <vehicle id="29" depart="89.00" departLane="best" departPos="random" departSpeed="max" arrivalPos="263.30">
        <route edges="A1A0 A0bottom0"/>
    </vehicle>
    <vehicle id="30" depart="97.00" departLane="best" departPos="random" departSpeed="max" arrivalPos="40.58">
        <route edges="B0A0 A0left0"/>
    </vehicle>
    <vehicle id="31" depart="114.00" departLane="best" departPos="random" departSpeed="max" arrivalPos="90.52">
        <route edges="left0A0 A0A1"/>
    </vehicle>
    <vehicle id="33" depart="129.00" departLane="best" departPos="random" departSpeed="max" arrivalPos="197.50">
        <route edges="left0A0 A0bottom0"/>
    </vehicle>
    <vehicle id="34" depart="133.00" departLane="best" departPos="random" departSpeed="max" arrivalPos="45.22">
        <route edges="A1A0 A0B0"/>
    </vehicle>
    <vehicle id="36" depart="144.00" departLane="best" departPos="random" departSpeed="max" arrivalPos="231.48">
        <route edges="A1A0 A0left0"/>
    </vehicle>
    <vehicle id="39" depart="156.00" departLane="best" departPos="random" departSpeed="max" arrivalPos="185.14">
        <route edges="B0A0 A0A1"/>
    </vehicle>
    <vehicle id="40" depart="156.00" departLane="best" departPos="random" departSpeed="max" arrivalPos="17.85">
        <route edges="B0A0 A0bottom0"/>
    </vehicle>
    <vehicle id="41" depart="167.00" departLane="best" departPos="random" departSpeed="max" arrivalPos="35.84">
        <route edges="B0A0 A0A1"/>
    </vehicle>
    <vehicle id="42" depart="170.00" departLane="best" departPos="random" departSpeed="max" arrivalPos="113.93">
        <route edges="B0A0 A0left0"/>
    </vehicle>
    <vehicle id="43" depart="173.00" departLane="best" departPos="random" departSpeed="max" arrivalPos="66.88">
        <route edges="B0A0 A0bottom0"/>
    </vehicle>
    <vehicle id="44" depart="177.00" departLane="best" departPos="random" departSpeed="max" arrivalPos="143.46">
        <route edges="A1A0 A0bottom0"/>
    </vehicle>
    <vehicle id="45" depart="187.00" departLane="best" departPos="random" departSpeed="max" arrivalPos="196.62">
        <route edges="bottom0A0 A0B0"/>
    </vehicle>
    <vehicle id="46" depart="192.00" departLane="best" departPos="random" departSpeed="max" arrivalPos="141.79">
        <route edges="bottom0A0 A0A1"/>
    </vehicle>
    <vehicle id="47" depart="197.00" departLane="best" departPos="random" departSpeed="max" arrivalPos="118.07">
        <route edges="B0A0 A0A1"/>
    </vehicle>
    <vehicle id="48" depart="202.00" departLane="best" departPos="random" departSpeed="max" arrivalPos="262.83">
        <route edges="bottom0A0 A0left0"/>
    </vehicle>
    <vehicle id="49" depart="204.00" departLane="best" departPos="random" departSpeed="max" arrivalPos="13.80">
        <route edges="B0A0 A0bottom0"/>
    </vehicle>
    <vehicle id="50" depart="209.00" departLane="best" departPos="random" departSpeed="max" arrivalPos="251.29">
        <route edges="A1A0 A0bottom0"/>
    </vehicle>
    <vehicle id="51" depart="213.00" departLane="best" departPos="random" departSpeed="max" arrivalPos="252.89">
        <route edges="A1A0 A0left0"/>
    </vehicle>
    <vehicle id="52" depart="213.00" departLane="best" departPos="random" departSpeed="max" arrivalPos="243.15">
        <route edges="B0A0 A0bottom0"/>
    </vehicle>
    <vehicle id="53" depart="220.00" departLane="best" departPos="random" departSpeed="max" arrivalPos="210.91">
        <route edges="B0A0 A0bottom0"/>
    </vehicle>
    <vehicle id="54" depart="221.00" departLane="best" departPos="random" departSpeed="max" arrivalPos="256.79">
        <route edges="bottom0A0 A0left0"/>
    </vehicle>
    <vehicle id="55" depart="222.00" departLane="best" departPos="random" departSpeed="max" arrivalPos="50.49">
        <route edges="left0A0 A0bottom0"/>
    </vehicle>
    <vehicle id="56" depart="224.00" departLane="best" departPos="random" departSpeed="max" arrivalPos="163.11">
        <route edges="B0A0 A0A1"/>
    </vehicle>
    <vehicle id="57" depart="233.00" departLane="best" departPos="random" departSpeed="max" arrivalPos="195.22">
        <route edges="left0A0 A0A1"/>
    </vehicle>
    <vehicle id="58" depart="233.00" departLane="best" departPos="random" departSpeed="max" arrivalPos="147.51">
        <route edges="bottom0A0 A0B0"/>
    </vehicle>
    <vehicle id="59" depart="234.00" departLane="best" departPos="random" departSpeed="max" arrivalPos="11.66">
        <route edges="A1A0 A0bottom0"/>
    </vehicle>
    <vehicle id="61" depart="241.00" departLane="best" departPos="random" departSpeed="max" arrivalPos="274.78">
        <route edges="B0A0 A0left0"/>
    </vehicle>
    <vehicle id="62" depart="247.00" departLane="best" departPos="random" departSpeed="max" arrivalPos="241.13">
        <route edges="A1A0 A0left0"/>
    </vehicle>
    <vehicle id="65" depart="264.00" departLane="best" departPos="random" departSpeed="max" arrivalPos="47.19">
        <route edges="left0A0 A0B0"/>
    </vehicle>
    <vehicle id="66" depart="267.00" departLane="best" departPos="random" departSpeed="max" arrivalPos="260.30">
        <route edges="B0A0 A0A1"/>
    </vehicle>
    <vehicle id="67" depart="272.00" departLane="best" departPos="random" departSpeed="max" arrivalPos="172.03">
        <route edges="left0A0 A0A1"/>
    </vehicle>
    <vehicle id="68" depart="275.00" departLane="best" departPos="random" departSpeed="max" arrivalPos="84.62">
        <route edges="B0A0 A0A1"/>
    </vehicle>
    <vehicle id="69" depart="276.00" departLane="best" departPos="random" departSpeed="max" arrivalPos="1.15">
        <route edges="A1A0 A0bottom0"/>
    </vehicle>
    <vehicle id="70" depart="277.00" departLane="best" departPos="random" departSpeed="max" arrivalPos="6.02">
        <route edges="A1A0 A0B0"/>
    </vehicle>
    <vehicle id="72" depart="301.00" departLane="best" departPos="random" departSpeed="max" arrivalPos="155.33">
        <route edges="A1A0 A0B0"/>
    </vehicle>
    <vehicle id="73" depart="321.00" departLane="best" departPos="random" departSpeed="max" arrivalPos="71.85">
        <route edges="B0A0 A0bottom0"/>
    </vehicle>
    <vehicle id="74" depart="324.00" departLane="best" departPos="random" departSpeed="max" arrivalPos="231.60">
        <route edges="bottom0A0 A0left0"/>
    </vehicle>
    <vehicle id="75" depart="326.00" departLane="best" departPos="random" departSpeed="max" arrivalPos="140.57">
        <route edges="left0A0 A0bottom0"/>
    </vehicle>
    <vehicle id="78" depart="341.00" departLane="best" departPos="random" departSpeed="max" arrivalPos="214.02">
        <route edges="left0A0 A0A1"/>
    </vehicle>
    <vehicle id="79" depart="342.00" departLane="best" departPos="random" departSpeed="max" arrivalPos="217.97">
        <route edges="bottom0A0 A0left0"/>
    </vehicle>
    <vehicle id="80" depart="344.00" departLane="best" departPos="random" departSpeed="max" arrivalPos="143.31">
        <route edges="left0A0 A0A1"/>
    </vehicle>
    <vehicle id="81" depart="345.00" departLane="best" departPos="random" departSpeed="max" arrivalPos="144.07">
        <route edges="bottom0A0 A0B0"/>
    </vehicle>
    <vehicle id="82" depart="347.00" departLane="best" departPos="random" departSpeed="max" arrivalPos="0.24">
        <route edges="B0A0 A0bottom0"/>
    </vehicle>
    <vehicle id="84" depart="351.00" departLane="best" departPos="random" departSpeed="max" arrivalPos="195.73">
        <route edges="B0A0 A0left0"/>
    </vehicle>
    <vehicle id="85" depart="354.00" departLane="best" departPos="random" departSpeed="max" arrivalPos="108.13">
        <route edges="B0A0 A0bottom0"/>
    </vehicle>
    <vehicle id="87" depart="370.00" departLane="best" departPos="random" departSpeed="max" arrivalPos="237.55">
        <route edges="bottom0A0 A0left0"/>
    </vehicle>
    <vehicle id="88" depart="378.00" departLane="best" departPos="random" departSpeed="max" arrivalPos="132.20">
        <route edges="bottom0A0 A0left0"/>
    </vehicle>
    <vehicle id="89" depart="380.00" departLane="best" departPos="random" departSpeed="max" arrivalPos="213.26">
        <route edges="left0A0 A0B0"/>
    </vehicle>
    <vehicle id="90" depart="385.00" departLane="best" departPos="random" departSpeed="max" arrivalPos="48.78">
        <route edges="left0A0 A0B0"/>
    </vehicle>
    <vehicle id="92" depart="397.00" departLane="best" departPos="random" departSpeed="max" arrivalPos="121.97">
        <route edges="A1A0 A0B0"/>
    </vehicle>
    <vehicle id="93" depart="408.00" departLane="best" departPos="random" departSpeed="max" arrivalPos="167.38">
        <route edges="B0A0 A0left0"/>
    </vehicle>
    <vehicle id="94" depart="409.00" departLane="best" departPos="random" departSpeed="max" arrivalPos="214.45">
        <route edges="bottom0A0 A0left0"/>
    </vehicle>
    <vehicle id="95" depart="410.00" departLane="best" departPos="random" departSpeed="max" arrivalPos="183.40">
        <route edges="B0A0 A0bottom0"/>
    </vehicle>
    <vehicle id="99" depart="428.00" departLane="best" departPos="random" departSpeed="max" arrivalPos="100.08">
        <route edges="left0A0 A0bottom0"/>
    </vehicle>
    <vehicle id="100" depart="429.00" departLane="best" departPos="random" departSpeed="max" arrivalPos="250.30">
        <route edges="B0A0 A0bottom0"/>
    </vehicle>
    <vehicle id="101" depart="434.00" departLane="best" departPos="random" departSpeed="max" arrivalPos="238.56">
        <route edges="bottom0A0 A0A1"/>
    </vehicle>
    <vehicle id="104" depart="443.00" departLane="best" departPos="random" departSpeed="max" arrivalPos="5.65">
        <route edges="B0A0 A0bottom0"/>
    </vehicle>
    <vehicle id="105" depart="445.00" departLane="best" departPos="random" departSpeed="max" arrivalPos="197.74">
        <route edges="bottom0A0 A0left0"/>
    </vehicle>
    <vehicle id="106" depart="448.00" departLane="best" departPos="random" departSpeed="max" arrivalPos="173.27">
        <route edges="B0A0 A0bottom0"/>
    </vehicle>
    <vehicle id="108" depart="454.00" departLane="best" departPos="random" departSpeed="max" arrivalPos="237.91">
        <route edges="B0A0 A0A1"/>
    </vehicle>
    <vehicle id="109" depart="457.00" departLane="best" departPos="random" departSpeed="max" arrivalPos="146.50">
        <route edges="bottom0A0 A0B0"/>
    </vehicle>
    <vehicle id="110" depart="458.00" departLane="best" departPos="random" departSpeed="max" arrivalPos="187.04">
        <route edges="bottom0A0 A0A1"/>
    </vehicle>
    <vehicle id="111" depart="461.00" departLane="best" departPos="random" departSpeed="max" arrivalPos="77.26">
        <route edges="bottom0A0 A0left0"/>
    </vehicle>
    <vehicle id="112" depart="464.00" departLane="best" departPos="random" departSpeed="max" arrivalPos="160.68">
        <route edges="bottom0A0 A0A1"/>
    </vehicle>
    <vehicle id="113" depart="468.00" departLane="best" departPos="random" departSpeed="max" arrivalPos="248.23">
        <route edges="A1A0 A0left0"/>
    </vehicle>
    <vehicle id="114" depart="470.00" departLane="best" departPos="random" departSpeed="max" arrivalPos="276.03">
        <route edges="B0A0 A0A1"/>
    </vehicle>
    <vehicle id="115" depart="472.00" departLane="best" departPos="random" departSpeed="max" arrivalPos="8.75">
        <route edges="bottom0A0 A0left0"/>
    </vehicle>
    <vehicle id="116" depart="475.00" departLane="best" departPos="random" departSpeed="max" arrivalPos="90.65">
        <route edges="left0A0 A0bottom0"/>
    </vehicle>
    <vehicle id="117" depart="477.00" departLane="best" departPos="random" departSpeed="max" arrivalPos="224.94">
        <route edges="B0A0 A0left0"/>
    </vehicle>
    <vehicle id="118" depart="480.00" departLane="best" departPos="random" departSpeed="max" arrivalPos="47.44">
        <route edges="A1A0 A0bottom0"/>
    </vehicle>
    <vehicle id="119" depart="481.00" departLane="best" departPos="random" departSpeed="max" arrivalPos="261.52">
        <route edges="left0A0 A0B0"/>
    </vehicle>
    <vehicle id="121" depart="511.00" departLane="best" departPos="random" departSpeed="max" arrivalPos="39.55">
        <route edges="bottom0A0 A0A1"/>
    </vehicle>
    <vehicle id="122" depart="516.00" departLane="best" departPos="random" departSpeed="max" arrivalPos="215.19">
        <route edges="bottom0A0 A0B0"/>
    </vehicle>
    <vehicle id="123" depart="519.00" departLane="best" departPos="random" departSpeed="max" arrivalPos="205.77">
        <route edges="A1A0 A0bottom0"/>
    </vehicle>
    <vehicle id="124" depart="522.00" departLane="best" departPos="random" departSpeed="max" arrivalPos="113.70">
        <route edges="B0A0 A0A1"/>
    </vehicle>
    <vehicle id="125" depart="522.00" departLane="best" departPos="random" departSpeed="max" arrivalPos="53.49">
        <route edges="B0A0 A0A1"/>
    </vehicle>
    <vehicle id="126" depart="522.00" departLane="best" departPos="random" departSpeed="max" arrivalPos="254.57">
        <route edges="A1A0 A0bottom0"/>
    </vehicle>
    <vehicle id="129" depart="545.00" departLane="best" departPos="random" departSpeed="max" arrivalPos="33.81">
        <route edges="B0A0 A0left0"/>
    </vehicle>
    <vehicle id="130" depart="545.00" departLane="best" departPos="random" departSpeed="max" arrivalPos="114.48">
        <route edges="bottom0A0 A0A1"/>
    </vehicle>
    <vehicle id="132" depart="548.00" departLane="best" departPos="random" departSpeed="max" arrivalPos="132.48">
        <route edges="A1A0 A0left0"/>
    </vehicle>
    <vehicle id="133" depart="550.00" departLane="best" departPos="random" departSpeed="max" arrivalPos="204.76">
        <route edges="bottom0A0 A0A1"/>
    </vehicle>
    <vehicle id="134" depart="551.00" departLane="best" departPos="random" departSpeed="max" arrivalPos="260.48">
        <route edges="B0A0 A0bottom0"/>
    </vehicle>
    <vehicle id="135" depart="558.00" departLane="best" departPos="random" departSpeed="max" arrivalPos="228.39">
        <route edges="left0A0 A0A1"/>
    </vehicle>
    <vehicle id="136" depart="567.00" departLane="best" departPos="random" departSpeed="max" arrivalPos="109.73">
        <route edges="left0A0 A0B0"/>
    </vehicle>
    <vehicle id="137" depart="575.00" departLane="best" departPos="random" departSpeed="max" arrivalPos="114.54">
        <route edges="bottom0A0 A0left0"/>
    </vehicle>
    <vehicle id="139" depart="581.00" departLane="best" departPos="random" departSpeed="max" arrivalPos="41.58">
        <route edges="left0A0 A0A1"/>
    </vehicle>
    <vehicle id="140" depart="593.00" departLane="best" departPos="random" departSpeed="max" arrivalPos="108.69">
        <route edges="bottom0A0 A0A1"/>
    </vehicle>
    <vehicle id="141" depart="594.00" departLane="best" departPos="random" departSpeed="max" arrivalPos="240.57">
        <route edges="A1A0 A0B0"/>
    </vehicle>
    <vehicle id="142" depart="596.00" departLane="best" departPos="random" departSpeed="max" arrivalPos="17.43">
        <route edges="left0A0 A0A1"/>
    </vehicle>
    <vehicle id="143" depart="603.00" departLane="best" departPos="random" departSpeed="max" arrivalPos="78.36">
        <route edges="left0A0 A0A1"/>
    </vehicle>
    <vehicle id="146" depart="607.00" departLane="best" departPos="random" departSpeed="max" arrivalPos="111.61">
        <route edges="left0A0 A0bottom0"/>
    </vehicle>
    <vehicle id="147" depart="610.00" departLane="best" departPos="random" departSpeed="max" arrivalPos="183.76">
        <route edges="bottom0A0 A0left0"/>
    </vehicle>
    <vehicle id="149" depart="621.00" departLane="best" departPos="random" departSpeed="max" arrivalPos="173.37">
        <route edges="bottom0A0 A0B0"/>
    </vehicle>
    <vehicle id="152" depart="635.00" departLane="best" departPos="random" departSpeed="max" arrivalPos="189.71">
        <route edges="left0A0 A0B0"/>
    </vehicle>
    <vehicle id="154" depart="650.00" departLane="best" departPos="random" departSpeed="max" arrivalPos="279.64">
        <route edges="left0A0 A0B0"/>
    </vehicle>
    <vehicle id="155" depart="656.00" departLane="best" departPos="random" departSpeed="max" arrivalPos="244.75">
        <route edges="A1A0 A0left0"/>
    </vehicle>
    <vehicle id="156" depart="657.00" departLane="best" departPos="random" departSpeed="max" arrivalPos="26.12">
        <route edges="left0A0 A0A1"/>
    </vehicle>
    <vehicle id="157" depart="659.00" departLane="best" departPos="random" departSpeed="max" arrivalPos="106.04">
        <route edges="left0A0 A0B0"/>
    </vehicle>
    <vehicle id="158" depart="666.00" departLane="best" departPos="random" departSpeed="max" arrivalPos="152.21">
        <route edges="left0A0 A0A1"/>
    </vehicle>
    <vehicle id="159" depart="671.00" departLane="best" departPos="random" departSpeed="max" arrivalPos="113.18">
        <route edges="B0A0 A0A1"/>
    </vehicle>
    <vehicle id="160" depart="678.00" departLane="best" departPos="random" departSpeed="max" arrivalPos="7.05">
        <route edges="bottom0A0 A0left0"/>
    </vehicle>
    <vehicle id="161" depart="680.00" departLane="best" departPos="random" departSpeed="max" arrivalPos="229.23">
        <route edges="bottom0A0 A0A1"/>
    </vehicle>
    <vehicle id="163" depart="693.00" departLane="best" departPos="random" departSpeed="max" arrivalPos="37.23">
        <route edges="bottom0A0 A0B0"/>
    </vehicle>
    <vehicle id="166" depart="698.00" departLane="best" departPos="random" departSpeed="max" arrivalPos="96.99">
        <route edges="bottom0A0 A0B0"/>
    </vehicle>
    <vehicle id="168" depart="704.00" departLane="best" departPos="random" departSpeed="max" arrivalPos="128.48">
        <route edges="A1A0 A0bottom0"/>
    </vehicle>
    <vehicle id="169" depart="704.00" departLane="best" departPos="random" departSpeed="max" arrivalPos="239.08">
        <route edges="left0A0 A0bottom0"/>
    </vehicle>
    <vehicle id="171" depart="707.00" departLane="best" departPos="random" departSpeed="max" arrivalPos="44.97">
        <route edges="left0A0 A0B0"/>
    </vehicle>
    <vehicle id="172" depart="708.00" departLane="best" departPos="random" departSpeed="max" arrivalPos="27.89">
        <route edges="B0A0 A0bottom0"/>
    </vehicle>
    <vehicle id="173" depart="710.00" departLane="best" departPos="random" departSpeed="max" arrivalPos="12.48">
        <route edges="B0A0 A0bottom0"/>
    </vehicle>
    <vehicle id="174" depart="723.00" departLane="best" departPos="random" departSpeed="max" arrivalPos="89.83">
        <route edges="left0A0 A0bottom0"/>
    </vehicle>
    <vehicle id="177" depart="747.00" departLane="best" departPos="random" departSpeed="max" arrivalPos="93.24">
        <route edges="A1A0 A0left0"/>
    </vehicle>
    <vehicle id="178" depart="751.00" departLane="best" departPos="random" departSpeed="max" arrivalPos="280.50">
        <route edges="B0A0 A0A1"/>
    </vehicle>
    <vehicle id="179" depart="753.00" departLane="best" departPos="random" departSpeed="max" arrivalPos="265.67">
        <route edges="B0A0 A0left0"/>
    </vehicle>
    <vehicle id="183" depart="774.00" departLane="best" departPos="random" departSpeed="max" arrivalPos="213.84">
        <route edges="left0A0 A0bottom0"/>
    </vehicle>
    <vehicle id="184" depart="776.00" departLane="best" departPos="random" departSpeed="max" arrivalPos="184.30">
        <route edges="B0A0 A0left0"/>
    </vehicle>
    <vehicle id="186" depart="778.00" departLane="best" departPos="random" departSpeed="max" arrivalPos="42.49">
        <route edges="bottom0A0 A0A1"/>
    </vehicle>
    <vehicle id="188" depart="785.00" departLane="best" departPos="random" departSpeed="max" arrivalPos="208.49">
        <route edges="A1A0 A0B0"/>
    </vehicle>
    <vehicle id="190" depart="798.00" departLane="best" departPos="random" departSpeed="max" arrivalPos="74.95">
        <route edges="B0A0 A0A1"/>
    </vehicle>
    <vehicle id="192" depart="805.00" departLane="best" departPos="random" departSpeed="max" arrivalPos="184.22">
        <route edges="A1A0 A0left0"/>
    </vehicle>
    <vehicle id="193" depart="805.00" departLane="best" departPos="random" departSpeed="max" arrivalPos="6.26">
        <route edges="A1A0 A0left0"/>
    </vehicle>
    <vehicle id="194" depart="806.00" departLane="best" departPos="random" departSpeed="max" arrivalPos="203.42">
        <route edges="B0A0 A0left0"/>
    </vehicle>
    <vehicle id="195" depart="808.00" departLane="best" departPos="random" departSpeed="max" arrivalPos="171.29">
        <route edges="B0A0 A0left0"/>
    </vehicle>
    <vehicle id="198" depart="827.00" departLane="best" departPos="random" departSpeed="max" arrivalPos="233.14">
        <route edges="left0A0 A0bottom0"/>
    </vehicle>
    <vehicle id="199" depart="828.00" departLane="best" departPos="random" departSpeed="max" arrivalPos="57.67">
        <route edges="left0A0 A0B0"/>
    </vehicle>
    <vehicle id="200" depart="832.00" departLane="best" departPos="random" departSpeed="max" arrivalPos="147.29">
        <route edges="bottom0A0 A0left0"/>
    </vehicle>
    <vehicle id="202" depart="848.00" departLane="best" departPos="random" departSpeed="max" arrivalPos="11.49">
        <route edges="left0A0 A0bottom0"/>
    </vehicle>
    <vehicle id="203" depart="848.00" departLane="best" departPos="random" departSpeed="max" arrivalPos="54.35">
        <route edges="left0A0 A0B0"/>
    </vehicle>
    <vehicle id="204" depart="852.00" departLane="best" departPos="random" departSpeed="max" arrivalPos="1.58">
        <route edges="B0A0 A0bottom0"/>
    </vehicle>
    <vehicle id="205" depart="852.00" departLane="best" departPos="random" departSpeed="max" arrivalPos="254.09">
        <route edges="A1A0 A0B0"/>
    </vehicle>
    <vehicle id="206" depart="862.00" departLane="best" departPos="random" departSpeed="max" arrivalPos="155.52">
        <route edges="bottom0A0 A0left0"/>
    </vehicle>
    <vehicle id="208" depart="864.00" departLane="best" departPos="random" departSpeed="max" arrivalPos="273.04">
        <route edges="bottom0A0 A0left0"/>
    </vehicle>
    <vehicle id="209" depart="872.00" departLane="best" departPos="random" departSpeed="max" arrivalPos="88.14">
        <route edges="B0A0 A0bottom0"/>
    </vehicle>
    <vehicle id="210" depart="873.00" departLane="best" departPos="random" departSpeed="max" arrivalPos="167.91">
        <route edges="B0A0 A0bottom0"/>
    </vehicle>
    <vehicle id="211" depart="873.00" departLane="best" departPos="random" departSpeed="max" arrivalPos="46.67">
        <route edges="bottom0A0 A0left0"/>
    </vehicle>
    <vehicle id="212" depart="879.00" departLane="best" departPos="random" departSpeed="max" arrivalPos="210.83">
        <route edges="bottom0A0 A0left0"/>
    </vehicle>
    <vehicle id="213" depart="884.00" departLane="best" departPos="random" departSpeed="max" arrivalPos="115.17">
        <route edges="bottom0A0 A0B0"/>
    </vehicle>
    <vehicle id="217" depart="898.00" departLane="best" departPos="random" departSpeed="max" arrivalPos="137.88">
        <route edges="B0A0 A0bottom0"/>
    </vehicle>
    <vehicle id="220" depart="920.00" departLane="best" departPos="random" departSpeed="max" arrivalPos="245.70">
        <route edges="A1A0 A0B0"/>
    </vehicle>
    <vehicle id="221" depart="923.00" departLane="best" departPos="random" departSpeed="max" arrivalPos="285.75">
        <route edges="bottom0A0 A0B0"/>
    </vehicle>
    <vehicle id="222" depart="927.00" departLane="best" departPos="random" departSpeed="max" arrivalPos="211.80">
        <route edges="B0A0 A0bottom0"/>
    </vehicle>
    <vehicle id="223" depart="931.00" departLane="best" departPos="random" departSpeed="max" arrivalPos="222.53">
        <route edges="bottom0A0 A0B0"/>
    </vehicle>
    <vehicle id="224" depart="937.00" departLane="best" departPos="random" departSpeed="max" arrivalPos="140.73">
        <route edges="B0A0 A0bottom0"/>
    </vehicle>
    <vehicle id="225" depart="938.00" departLane="best" departPos="random" departSpeed="max" arrivalPos="26.17">
        <route edges="left0A0 A0bottom0"/>
    </vehicle>
    <vehicle id="226" depart="940.00" departLane="best" departPos="random" departSpeed="max" arrivalPos="65.65">
        <route edges="A1A0 A0left0"/>
    </vehicle>
    <vehicle id="227" depart="941.00" departLane="best" departPos="random" departSpeed="max" arrivalPos="137.41">
        <route edges="A1A0 A0B0"/>
    </vehicle>
    <vehicle id="228" depart="943.00" departLane="best" departPos="random" departSpeed="max" arrivalPos="207.21">
        <route edges="left0A0 A0B0"/>
    </vehicle>
    <vehicle id="229" depart="961.00" departLane="best" departPos="random" departSpeed="max" arrivalPos="175.25">
        <route edges="left0A0 A0A1"/>
    </vehicle>
    <vehicle id="230" depart="967.00" departLane="best" departPos="random" departSpeed="max" arrivalPos="153.08">
        <route edges="left0A0 A0bottom0"/>
    </vehicle>
    <vehicle id="231" depart="970.00" departLane="best" departPos="random" departSpeed="max" arrivalPos="277.69">
        <route edges="B0A0 A0left0"/>
    </vehicle>
    <vehicle id="232" depart="983.00" departLane="best" departPos="random" departSpeed="max" arrivalPos="120.18">
        <route edges="A1A0 A0bottom0"/>
    </vehicle>
    <vehicle id="233" depart="985.00" departLane="best" departPos="random" departSpeed="max" arrivalPos="75.99">
        <route edges="bottom0A0 A0A1"/>
    </vehicle>
    <vehicle id="236" depart="999.00" departLane="best" departPos="random" departSpeed="max" arrivalPos="191.52">
        <route edges="A1A0 A0B0"/>
    </vehicle>
    <vehicle id="237" depart="1001.00" departLane="best" departPos="random" departSpeed="max" arrivalPos="259.21">
        <route edges="B0A0 A0bottom0"/>
    </vehicle>
    <vehicle id="238" depart="1002.00" departLane="best" departPos="random" departSpeed="max" arrivalPos="30.31">
        <route edges="A1A0 A0left0"/>
    </vehicle>